2024_89_CemigReconfigurationCases/1_AlimsCemig/AXAU10/AXAU10SegmentosMT.dss
new line.TR101315 bus1=BMT170220294.1.2.3,bus2=BMT217851B.1.2.3,Phases=3,Linecode=CAB103_3_3,Length=0.035225000,Units=km
new line.TR101322 bus1=BMT217851B.1.2.3,bus2=BMT217858B.1.2.3,Phases=3,Linecode=CAB103_3_3,Length=0.035465000,Units=km
new line.TR101329 bus1=BMT217858B.1.2.3,bus2=BMT217865B.1.2.3,Phases=3,Linecode=CAB103_3_3,Length=0.028598000,Units=km
new line.TR101336 bus1=BMT217865B.1.2.3,bus2=BMT217872B.1.2.3,Phases=3,Linecode=CAB103_3_3,Length=0.030608000,Units=km
new line.TR101343 bus1=BMT217872B.1.2.3,bus2=BMT165918009.1.2.3,Phases=3,Linecode=CAB103_3_3,Length=0.033598000,Units=km
new line.TR101350 bus1=BMT165918009.1.2.3,bus2=BMT170220295.1.2.3,Phases=3,Linecode=CAB103_3_3,Length=0.030608000,Units=km
new line.TR101357 bus1=BMT170220295.1.2.3,bus2=BMT170220296.1.2.3,Phases=3,Linecode=CAB103_3_3,Length=0.032013000,Units=km
new line.TR101364 bus1=BMT170220295.1.2.3,bus2=BMT165918737.1.2.3,Phases=3,Linecode=CABA06_3_3,Length=0.024019000,Units=km
new line.TR1092718 bus1=BMT119973816.1.2.3,bus2=BMT119973809.1.2.3,Phases=3,Linecode=CAB102_3_3,Length=0.014865000,Units=km
new line.TR1092725 bus1=BMT159398259.1.2.3,bus2=BMT159398260.1.2.3,Phases=3,Linecode=CABA06_3_3,Length=0.018109000,Units=km
new line.TR1092732 bus1=BMT159398259.1.2.3,bus2=BMT190040B.1.2.3,Phases=3,Linecode=CABA06_3_3,Length=0.019234000,Units=km
new line.TR1092739 bus1=BMT159398259.1.2.3,bus2=BMT119970414.1.2.3,Phases=3,Linecode=CABA06_3_3,Length=0.009055000,Units=km
new line.TR1092746 bus1=BMT119973354.2,bus2=BMT119973361.2,Phases=1,Linecode=CAB202_3_1,Length=0.093468000,Units=km
new line.TR1092753 bus1=BMT119973361.2,bus2=BMT119973368.2,Phases=1,Linecode=CAB103_3_1,Length=0.069420000,Units=km
new line.TR1092760 bus1=BMT119973361.2,bus2=BMT119973375.2,Phases=1,Linecode=CAB103_3_1,Length=0.073783000,Units=km
new line.TR1092809 bus1=BMT2275557B.2,bus2=BMT156142617.2,Phases=1,Linecode=CAB202_3_1,Length=0.126479000,Units=km
new line.TR1092816 bus1=BMT119973235.2,bus2=BMT156142619.2,Phases=1,Linecode=CAB202_3_1,Length=0.160409000,Units=km
new line.TR1092823 bus1=BMT119973256.2,bus2=BMT2275571B.2,Phases=1,Linecode=CAB202_3_1,Length=0.137104000,Units=km
new line.TR1092830 bus1=BMT2275571B.2,bus2=BMT119973263.2,Phases=1,Linecode=CAB202_3_1,Length=0.125184000,Units=km
new line.TR1092837 bus1=BMT2275578B.2,bus2=BMT4149086B.2,Phases=1,Linecode=CAB202_3_1,Length=0.128740000,Units=km
new line.TR1092844 bus1=BMT119972976.2,bus2=BMT119972983.2,Phases=1,Linecode=CAB202_3_1,Length=0.105312000,Units=km
new line.TR1092851 bus1=BMT119972983.2,bus2=BMT4169204B.2,Phases=1,Linecode=CAB202_3_1,Length=0.144984000,Units=km
new line.TR1092858 bus1=BMT119972983.2,bus2=BMT4169253B.2,Phases=1,Linecode=CAB202_3_1,Length=0.270089000,Units=km
new line.TR1092865 bus1=BMT162405722.1.2.3,bus2=BMT162405723.1.2.3,Phases=3,Linecode=CAB204_3_3,Length=0.298909000,Units=km
new line.TR1092872 bus1=BMT162400330.1.2.3,bus2=BMT162400331.1.2.3,Phases=3,Linecode=CAB103_3_3,Length=0.027511000,Units=km
new line.TR1092879 bus1=BMT162400330.1.2.3,bus2=BMT4170219B.1.2.3,Phases=3,Linecode=CAB204_3_3,Length=0.094420000,Units=km
new line.TR1092886 bus1=BMT119972549.1.2.3,bus2=BMT119972563.1.2.3,Phases=3,Linecode=CAB202_3_3,Length=0.111654000,Units=km
new line.TR1092893 bus1=BMT119972766.3,bus2=BMT119972773.3,Phases=1,Linecode=CAB202_3_1,Length=0.113558000,Units=km
new line.TR1092900 bus1=BMT119972563.1.2.3,bus2=BMT162405726.1.2.3,Phases=3,Linecode=CAB202_3_3,Length=0.126182000,Units=km
new line.TR1092907 bus1=BMT119972724.3,bus2=BMT4173950B.3,Phases=1,Linecode=CAB202_3_1,Length=0.121988000,Units=km
new line.TR1092914 bus1=BMT119972731.3,bus2=BMT119972738.3,Phases=1,Linecode=CAB202_3_1,Length=0.095698000,Units=km
new line.TR1092921 bus1=BMT119972731.3,bus2=BMT119972745.3,Phases=1,Linecode=CAB202_3_1,Length=0.077922000,Units=km
new line.TR1092928 bus1=BMT162405726.2,bus2=BMT4173943B.2,Phases=1,Linecode=CAB202_3_1,Length=0.099192000,Units=km
new line.TR1092935 bus1=BMT162405726.1.2.3,bus2=BMT4174279B.1.2.3,Phases=3,Linecode=CAB202_3_3,Length=0.142664000,Units=km
new line.TR1092942 bus1=BMT2275641B.1.2.3,bus2=BMT119972584.1.2.3,Phases=3,Linecode=CAB202_3_3,Length=0.124988000,Units=km
new line.TR1092949 bus1=BMT119972584.1.2.3,bus2=BMT162405728.1.2.3,Phases=3,Linecode=CAB202_3_3,Length=0.072794000,Units=km
new line.TR1092956 bus1=BMT119972710.3,bus2=BMT4174734B.3,Phases=1,Linecode=CAB202_3_1,Length=0.242672000,Units=km
new line.TR1092963 bus1=BMT162405728.1.2.3,bus2=BMT4174314B.1.2.3,Phases=3,Linecode=CAB202_3_3,Length=0.100991000,Units=km
new line.TR1092970 bus1=BMT162405728.1.2.3,bus2=BMT4174657B.1.2.3,Phases=3,Linecode=CAB202_3_3,Length=0.120893000,Units=km
new line.TR1092977 bus1=BMT162405730.2,bus2=BMT119972612.2,Phases=1,Linecode=CAB202_3_1,Length=0.137628000,Units=km
new line.TR1092984 bus1=BMT162405730.1.2.3,bus2=BMT4174797B.1.2.3,Phases=3,Linecode=CAB202_3_3,Length=0.077362000,Units=km
new line.TR1092991 bus1=BMT119972640.2,bus2=BMT119972647.2,Phases=1,Linecode=CAB202_3_1,Length=0.079113000,Units=km
new line.TR1092998 bus1=BMT119972640.2,bus2=BMT119972654.2,Phases=1,Linecode=CAB202_3_1,Length=0.233998000,Units=km
new line.TR1093005 bus1=BMT162405693.1.2.3,bus2=BMT162405694.1.2.3,Phases=3,Linecode=CAB203_3_3,Length=0.049996000,Units=km
new line.TR1093019 bus1=BMT2275683B.1.2.3,bus2=BMT3660241B.1.2.3,Phases=3,Linecode=CAB202_3_3,Length=0.042103000,Units=km
new line.TR1093026 bus1=BMT155948396.2,bus2=BMT2275697B.2,Phases=1,Linecode=CAB202_3_1,Length=0.212320000,Units=km
new line.TR1093033 bus1=BMT119972654.2,bus2=BMT2275704B.2,Phases=1,Linecode=CAB202_3_1,Length=0.073001000,Units=km
new line.TR1093040 bus1=BMT2275697B.2,bus2=BMT155948397.2,Phases=1,Linecode=CAB202_3_1,Length=0.130851000,Units=km
new line.TR1093047 bus1=BMT2275704B.2,bus2=BMT4174986B.2,Phases=1,Linecode=CAB202_3_1,Length=0.134468000,Units=km
new line.TR1093054 bus1=BMT119972661.2,bus2=BMT119972668.2,Phases=1,Linecode=CAB202_3_1,Length=0.074666000,Units=km
new line.TR1093061 bus1=BMT119972661.2,bus2=BMT4175028B.2,Phases=1,Linecode=CAB202_3_1,Length=0.058596000,Units=km
new line.TR1093068 bus1=BMT2275718B.2,bus2=BMT119972675.2,Phases=1,Linecode=CAB202_3_1,Length=0.099616000,Units=km
new line.TR1093075 bus1=BMT2275725B.1.2.3,bus2=BMT4172361B.1.2.3,Phases=3,Linecode=CAB204_3_3,Length=0.110641000,Units=km
new line.TR1093082 bus1=BMT119972514.1.2.3,bus2=BMT4172501B.1.2.3,Phases=3,Linecode=CAB204_3_3,Length=0.076229000,Units=km
new line.TR1093089 bus1=BMT173228970.2,bus2=BMT4172592B.2,Phases=1,Linecode=CAB202_3_1,Length=0.132952000,Units=km
new line.TR1093096 bus1=BMT119972794.2,bus2=BMT2275760B.2,Phases=1,Linecode=CAB202_3_1,Length=0.160161000,Units=km
new line.TR12120146 bus1=BMT168026378.1.2.3,bus2=BMT158685093.1.2.3,Phases=3,Linecode=CABA06_3_3,Length=0.029830000,Units=km
new line.TR12120160 bus1=BMT159358756.1.2.3,bus2=BMT8712747B.1.2.3,Phases=3,Linecode=CABA06_3_3,Length=0.032997000,Units=km
new line.TR12120161 bus1=BMT8712747B.1.2.3,bus2=BMT8712749B.1.2.3,Phases=3,Linecode=CABA06_3_3,Length=0.006083000,Units=km
new line.TR12120163 bus1=BMT8712749B.1.2.3,bus2=BMT8712748B.1.2.3,Phases=3,Linecode=CABA06_3_3,Length=0.022089000,Units=km
new line.TR12120165 bus1=BMT8712749B.1.2.3,bus2=BMT8712750B.1.2.3,Phases=3,Linecode=CABA06_3_3,Length=0.024998000,Units=km
new line.TR12120166 bus1=BMT8712749B.1.2.3,bus2=BMT8712751B.1.2.3,Phases=3,Linecode=CABA06_3_3,Length=0.005099000,Units=km
new line.TR12120168 bus1=BMT8712751B.1.2.3,bus2=BMT159358757.1.2.3,Phases=3,Linecode=CABA06_3_3,Length=0.019645000,Units=km
new line.TR12120174 bus1=BMT159358757.1.2.3,bus2=BMT159358758.1.2.3,Phases=3,Linecode=CABA06_3_3,Length=0.019645000,Units=km
new line.TR12120175 bus1=BMT159358758.1.2.3,bus2=BMT8712754B.1.2.3,Phases=3,Linecode=CABA06_3_3,Length=0.024737000,Units=km
new line.TR12120176 bus1=BMT159358758.1.2.3,bus2=BMT8712774B.1.2.3,Phases=3,Linecode=CABA06_3_3,Length=0.025630000,Units=km
new line.TR12120177 bus1=BMT8712774B.1.2.3,bus2=BMT8712775B.1.2.3,Phases=3,Linecode=CABA06_3_3,Length=0.023407000,Units=km
new line.TR12120178 bus1=BMT8712775B.1.2.3,bus2=BMT8712776B.1.2.3,Phases=3,Linecode=CABA06_3_3,Length=0.036052000,Units=km
new line.TR12120182 bus1=BMT8712776B.1.2.3,bus2=BMT8712777B.1.2.3,Phases=3,Linecode=CABA06_3_3,Length=0.036052000,Units=km
new line.TR12120183 bus1=BMT8712777B.1.2.3,bus2=BMT8712784B.1.2.3,Phases=3,Linecode=CABA06_3_3,Length=0.042375000,Units=km
new line.TR12120184 bus1=BMT8712784B.1.2.3,bus2=BMT8712791B.1.2.3,Phases=3,Linecode=CABA06_3_3,Length=0.037333000,Units=km
new line.TR12120185 bus1=BMT8712791B.1.2.3,bus2=BMT159358760.1.2.3,Phases=3,Linecode=CABA06_3_3,Length=0.006324000,Units=km
new line.TR12120186 bus1=BMT159358760.1.2.3,bus2=BMT8712833B.1.2.3,Phases=3,Linecode=CABA06_3_3,Length=0.023407000,Units=km
new line.TR12120187 bus1=BMT8712833B.1.2.3,bus2=BMT8712834B.1.2.3,Phases=3,Linecode=CABA06_3_3,Length=0.029730000,Units=km
new line.TR12120188 bus1=BMT8712834B.1.2.3,bus2=BMT159358761.1.2.3,Phases=3,Linecode=CABA06_3_3,Length=0.004472000,Units=km
new line.TR12120189 bus1=BMT159358761.1.2.3,bus2=BMT8712926B.1.2.3,Phases=3,Linecode=CABA06_3_3,Length=0.023768000,Units=km
new line.TR12120190 bus1=BMT8712926B.1.2.3,bus2=BMT8712927B.1.2.3,Phases=3,Linecode=CABA06_3_3,Length=0.030081000,Units=km
new line.TR12120191 bus1=BMT8712927B.1.2.3,bus2=BMT8712928B.1.2.3,Phases=3,Linecode=CABA06_3_3,Length=0.030673000,Units=km
new line.TR12120192 bus1=BMT8712754B.1.2.3,bus2=BMT8712755B.1.2.3,Phases=3,Linecode=CABA06_3_3,Length=0.029118000,Units=km
new line.TR12120193 bus1=BMT8712755B.1.2.3,bus2=BMT159358759.1.2.3,Phases=3,Linecode=CABA06_3_3,Length=0.030081000,Units=km
new line.TR12120194 bus1=BMT159358759.1.2.3,bus2=BMT8712757B.1.2.3,Phases=3,Linecode=CABA06_3_3,Length=0.023768000,Units=km
new line.TR12120195 bus1=BMT8712757B.1.2.3,bus2=BMT8712758B.1.2.3,Phases=3,Linecode=CABA06_3_3,Length=0.024737000,Units=km
new line.TR12120196 bus1=BMT8712758B.1.2.3,bus2=BMT8712759B.1.2.3,Phases=3,Linecode=CABA06_3_3,Length=0.032277000,Units=km
new line.TR12120197 bus1=BMT8712759B.1.2.3,bus2=BMT8712760B.1.2.3,Phases=3,Linecode=CABA06_3_3,Length=0.007615000,Units=km
new line.TR12120198 bus1=BMT8712760B.1.2.3,bus2=BMT159358770.1.2.3,Phases=3,Linecode=CABA06_3_3,Length=0.023407000,Units=km
new line.TR12120199 bus1=BMT159358770.1.2.3,bus2=BMT8712763B.1.2.3,Phases=3,Linecode=CABA06_3_3,Length=0.025630000,Units=km
new line.TR12120200 bus1=BMT8712763B.1.2.3,bus2=BMT8712764B.1.2.3,Phases=3,Linecode=CABA06_3_3,Length=0.025296000,Units=km
new line.TR12120201 bus1=BMT8712764B.1.2.3,bus2=BMT8712765B.1.2.3,Phases=3,Linecode=CABA06_3_3,Length=0.025630000,Units=km
new line.TR12120202 bus1=BMT8712765B.1.2.3,bus2=BMT159358771.1.2.3,Phases=3,Linecode=CABA06_3_3,Length=0.026247000,Units=km
new line.TR12120203 bus1=BMT159358771.1.2.3,bus2=BMT8712985B.1.2.3,Phases=3,Linecode=CABA06_3_3,Length=0.025630000,Units=km
new line.TR12120204 bus1=BMT8712985B.1.2.3,bus2=BMT8713000B.1.2.3,Phases=3,Linecode=CABA06_3_3,Length=0.023407000,Units=km
new line.TR12120205 bus1=BMT8713000B.1.2.3,bus2=BMT8713016B.1.2.3,Phases=3,Linecode=CABA06_3_3,Length=0.025959000,Units=km
new line.TR12120206 bus1=BMT8713016B.1.2.3,bus2=BMT8713019B.1.2.3,Phases=3,Linecode=CABA06_3_3,Length=0.039214000,Units=km
new line.TR12120207 bus1=BMT8713019B.1.2.3,bus2=BMT8713020B.1.2.3,Phases=3,Linecode=CABA06_3_3,Length=0.036052000,Units=km
new line.TR12120208 bus1=BMT8713020B.1.2.3,bus2=BMT8713022B.1.2.3,Phases=3,Linecode=CABA06_3_3,Length=0.036052000,Units=km
new line.TR12120209 bus1=BMT8713022B.1.2.3,bus2=BMT8713046B.1.2.3,Phases=3,Linecode=CABA06_3_3,Length=0.006708000,Units=km
new line.TR12120210 bus1=BMT8713046B.1.2.3,bus2=BMT159358772.1.2.3,Phases=3,Linecode=CABA06_3_3,Length=0.023407000,Units=km
new line.TR12120211 bus1=BMT159358760.1.2.3,bus2=BMT159358762.1.2.3,Phases=3,Linecode=CABA06_3_3,Length=0.019923000,Units=km
new line.TR12120212 bus1=BMT159358760.1.2.3,bus2=BMT8712779B.1.2.3,Phases=3,Linecode=CABA06_3_3,Length=0.006324000,Units=km
new line.TR12120213 bus1=BMT8712779B.1.2.3,bus2=BMT8712796B.1.2.3,Phases=3,Linecode=CABA06_3_3,Length=0.025998000,Units=km
new line.TR12120214 bus1=BMT8712796B.1.2.3,bus2=BMT8712798B.1.2.3,Phases=3,Linecode=CABA06_3_3,Length=0.026247000,Units=km
new line.TR12120215 bus1=BMT8712798B.1.2.3,bus2=BMT159358763.1.2.3,Phases=3,Linecode=CABA06_3_3,Length=0.025998000,Units=km
new line.TR12120216 bus1=BMT159358761.1.2.3,bus2=BMT8712836B.1.2.3,Phases=3,Linecode=CABA06_3_3,Length=0.004123000,Units=km
new line.TR12120217 bus1=BMT8712836B.1.2.3,bus2=BMT8712840B.1.2.3,Phases=3,Linecode=CABA06_3_3,Length=0.022134000,Units=km
new line.TR12120218 bus1=BMT8712840B.1.2.3,bus2=BMT8712871B.1.2.3,Phases=3,Linecode=CABA06_3_3,Length=0.023407000,Units=km
new line.TR12120219 bus1=BMT8712871B.1.2.3,bus2=BMT159358765.1.2.3,Phases=3,Linecode=CABA06_3_3,Length=0.026924000,Units=km
new line.TR12120220 bus1=BMT159358761.1.2.3,bus2=BMT159358766.1.2.3,Phases=3,Linecode=CABA06_3_3,Length=0.022470000,Units=km
new line.TR12120221 bus1=BMT159358765.1.2.3,bus2=BMT8712873B.1.2.3,Phases=3,Linecode=CABA06_3_3,Length=0.026568000,Units=km
new line.TR12120225 bus1=BMT8712873B.1.2.3,bus2=BMT8712875B.1.2.3,Phases=3,Linecode=CABA06_3_3,Length=0.026568000,Units=km
new line.TR12120226 bus1=BMT8712875B.1.2.3,bus2=BMT8712831B.1.2.3,Phases=3,Linecode=CABA06_3_3,Length=0.026831000,Units=km
new line.TR12120228 bus1=BMT8712831B.1.2.3,bus2=BMT8712832B.1.2.3,Phases=3,Linecode=CABA06_3_3,Length=0.030673000,Units=km
new line.TR100951 bus1=BMT217179B.1.2.3,bus2=BMT169706095.1.2.3,Phases=3,Linecode=CAB103_3_3,Length=0.025078000,Units=km
new line.TR100958 bus1=BMT217179B.1.2.3,bus2=BMT217186B.1.2.3,Phases=3,Linecode=CAB103_3_3,Length=0.039455000,Units=km
new line.TR100965 bus1=BMT217193B.1.2.3,bus2=BMT217207B.1.2.3,Phases=3,Linecode=CABA08_3_3,Length=0.031046000,Units=km
new line.TR100972 bus1=BMT217200B.1.2.3,bus2=BMT217186B.1.2.3,Phases=3,Linecode=CAB103_3_3,Length=0.039846000,Units=km
new line.TR100979 bus1=BMT217207B.1.2.3,bus2=BMT169706090.1.2.3,Phases=3,Linecode=CABA08_3_3,Length=0.030411000,Units=km
new line.TR100986 bus1=BMT169706094.1.2.3,bus2=BMT217200B.1.2.3,Phases=3,Linecode=CAB103_3_3,Length=0.022134000,Units=km
new line.TR101000 bus1=BMT217228B.1.2.3,bus2=BMT169706094.1.2.3,Phases=3,Linecode=CABA06_3_3,Length=0.037944000,Units=km
new line.TR101007 bus1=BMT217235B.1.2.3,bus2=BMT217228B.1.2.3,Phases=3,Linecode=CABA06_3_3,Length=0.010049000,Units=km
new line.TR12126821 bus1=BMT159358928.1.2.3,bus2=BMT8719803B.1.2.3,Phases=3,Linecode=CABA06_3_3,Length=0.024998000,Units=km
new line.TR12126826 bus1=BMT159358931.1.2.3,bus2=BMT159358932.1.2.3,Phases=3,Linecode=CABA06_3_3,Length=0.029730000,Units=km
new line.TR12126828 bus1=BMT8719894B.1.2.3,bus2=BMT8719877B.1.2.3,Phases=3,Linecode=CABA06_3_3,Length=0.020879000,Units=km
new line.TR12126829 bus1=BMT8719877B.1.2.3,bus2=BMT8719974B.1.2.3,Phases=3,Linecode=CABA06_3_3,Length=0.039214000,Units=km
new line.TR12126833 bus1=BMT8719974B.1.2.3,bus2=BMT8719975B.1.2.3,Phases=3,Linecode=CABA06_3_3,Length=0.031950000,Units=km
new line.TR12126836 bus1=BMT8719975B.1.2.3,bus2=BMT8719978B.1.2.3,Phases=3,Linecode=CABA06_3_3,Length=0.024998000,Units=km
new line.TR12126839 bus1=BMT8719978B.1.2.3,bus2=BMT8719979B.1.2.3,Phases=3,Linecode=CABA06_3_3,Length=0.026924000,Units=km
new line.TR12126844 bus1=BMT8719979B.1.2.3,bus2=BMT159358934.1.2.3,Phases=3,Linecode=CABA06_3_3,Length=0.028790000,Units=km
new line.TR12126904 bus1=BMT8719807B.1.2.3,bus2=BMT159358930.1.2.3,Phases=3,Linecode=CABA06_3_3,Length=0.038272000,Units=km
new line.TR12126905 bus1=BMT159358930.1.2.3,bus2=BMT8719812B.1.2.3,Phases=3,Linecode=CABA06_3_3,Length=0.026568000,Units=km
new line.TR12126914 bus1=BMT8719812B.1.2.3,bus2=BMT159358935.1.2.3,Phases=3,Linecode=CABA06_3_3,Length=0.025296000,Units=km
new line.TR12126918 bus1=BMT159358935.1.2.3,bus2=BMT8719827B.1.2.3,Phases=3,Linecode=CABA06_3_3,Length=0.008062000,Units=km
new line.TR12126919 bus1=BMT8719827B.1.2.3,bus2=BMT159358937.1.2.3,Phases=3,Linecode=CABA06_3_3,Length=0.041781000,Units=km
new line.TR12126946 bus1=BMT159358930.1.2.3,bus2=BMT8719835B.1.2.3,Phases=3,Linecode=CABA06_3_3,Length=0.008544000,Units=km
new line.TR12126947 bus1=BMT8719835B.1.2.3,bus2=BMT8719837B.1.2.3,Phases=3,Linecode=CABA06_3_3,Length=0.024350000,Units=km
new line.TR12126948 bus1=BMT8719837B.1.2.3,bus2=BMT159358936.1.2.3,Phases=3,Linecode=CABA06_3_3,Length=0.026924000,Units=km
new line.TR12127645 bus1=BMT159358932.1.2.3,bus2=BMT159358933.1.2.3,Phases=3,Linecode=CABA06_3_3,Length=0.030673000,Units=km
new line.TR12127681 bus1=BMT8719803B.1.2.3,bus2=BMT159358929.1.2.3,Phases=3,Linecode=CABA06_3_3,Length=0.005385000,Units=km
new line.TR12127682 bus1=BMT159358929.1.2.3,bus2=BMT8719807B.1.2.3,Phases=3,Linecode=CABA06_3_3,Length=0.012648000,Units=km
new line.TR12127693 bus1=BMT159358929.1.2.3,bus2=BMT8719917B.1.2.3,Phases=3,Linecode=CABA06_3_3,Length=0.005099000,Units=km
new line.TR12127694 bus1=BMT159358929.1.2.3,bus2=BMT159358931.1.2.3,Phases=3,Linecode=CABA06_3_3,Length=0.026247000,Units=km
new line.TR12129623 bus1=BMT159358935.1.2.3,bus2=BMT148847524.1.2.3,Phases=3,Linecode=CABA06_3_3,Length=0.017719000,Units=km
new line.TR12129625 bus1=BMT161934392.1.2.3,bus2=BMT8723284B.1.2.3,Phases=3,Linecode=CABA06_3_3,Length=0.008246000,Units=km
new line.TR12129626 bus1=BMT8723284B.1.2.3,bus2=BMT8723287B.1.2.3,Phases=3,Linecode=CABA06_3_3,Length=0.009434000,Units=km
new line.TR12129629 bus1=BMT8723287B.1.2.3,bus2=BMT161934393.1.2.3,Phases=3,Linecode=CABA06_3_3,Length=0.009848000,Units=km
new line.TR12129639 bus1=BMT8723298B.1.2.3,bus2=BMT8723296B.1.2.3,Phases=3,Linecode=CABA06_3_3,Length=0.012648000,Units=km
new line.TR12129641 bus1=BMT8723296B.1.2.3,bus2=BMT8723241B.1.2.3,Phases=3,Linecode=CABA06_3_3,Length=0.013038000,Units=km
new line.TR12129694 bus1=BMT8723241B.1.2.3,bus2=BMT8723251B.1.2.3,Phases=3,Linecode=CABA06_3_3,Length=0.035168000,Units=km
new line.TR12129699 bus1=BMT8723251B.1.2.3,bus2=BMT161934395.1.2.3,Phases=3,Linecode=CABA06_3_3,Length=0.025959000,Units=km
new line.TR12129727 bus1=BMT161934393.1.2.3,bus2=BMT8723328B.1.2.3,Phases=3,Linecode=CABA06_3_3,Length=0.038272000,Units=km
new line.TR12129728 bus1=BMT8723328B.1.2.3,bus2=BMT8723329B.1.2.3,Phases=3,Linecode=CABA06_3_3,Length=0.038272000,Units=km
new line.TR12129730 bus1=BMT8723329B.1.2.3,bus2=BMT8723333B.1.2.3,Phases=3,Linecode=CABA06_3_3,Length=0.038272000,Units=km
new line.TR12129743 bus1=BMT8723333B.1.2.3,bus2=BMT161934394.1.2.3,Phases=3,Linecode=CABA06_3_3,Length=0.038272000,Units=km
new line.TR12129752 bus1=BMT161934394.1.2.3,bus2=BMT8723326B.1.2.3,Phases=3,Linecode=CABA06_3_3,Length=0.036997000,Units=km
new line.TR12129753 bus1=BMT8723326B.1.2.3,bus2=BMT161934396.1.2.3,Phases=3,Linecode=CABA06_3_3,Length=0.005385000,Units=km
new line.TR12129754 bus1=BMT161934396.1.2.3,bus2=BMT8723392B.1.2.3,Phases=3,Linecode=CABA06_3_3,Length=0.005831000,Units=km
new line.TR12129758 bus1=BMT161934396.1.2.3,bus2=BMT8723346B.1.2.3,Phases=3,Linecode=CABA06_3_3,Length=0.024998000,Units=km
new line.TR12129761 bus1=BMT8723346B.1.2.3,bus2=BMT8723327B.1.2.3,Phases=3,Linecode=CABA06_3_3,Length=0.019312000,Units=km
new line.TR12129768 bus1=BMT8723327B.1.2.3,bus2=BMT8723351B.1.2.3,Phases=3,Linecode=CABA06_3_3,Length=0.031013000,Units=km
new line.TR12129770 bus1=BMT8723351B.1.2.3,bus2=BMT161934397.1.2.3,Phases=3,Linecode=CABA06_3_3,Length=0.016762000,Units=km
new line.TR12129771 bus1=BMT161934396.1.2.3,bus2=BMT8723483B.1.2.3,Phases=3,Linecode=CABA06_3_3,Length=0.024350000,Units=km
new line.TR12129773 bus1=BMT8723483B.1.2.3,bus2=BMT8723484B.1.2.3,Phases=3,Linecode=CABA06_3_3,Length=0.029408000,Units=km
new line.TR12129774 bus1=BMT8723484B.1.2.3,bus2=BMT161934398.1.2.3,Phases=3,Linecode=CABA06_3_3,Length=0.005385000,Units=km
new line.TR12129775 bus1=BMT161934398.1.2.3,bus2=BMT8723522B.1.2.3,Phases=3,Linecode=CABA06_3_3,Length=0.007211000,Units=km
new line.TR12129776 bus1=BMT161934398.1.2.3,bus2=BMT8723475B.1.2.3,Phases=3,Linecode=CABA06_3_3,Length=0.025959000,Units=km
new line.TR12129777 bus1=BMT8723475B.1.2.3,bus2=BMT8723472B.1.2.3,Phases=3,Linecode=CABA06_3_3,Length=0.022470000,Units=km
new line.TR12129778 bus1=BMT8723472B.1.2.3,bus2=BMT8723458B.1.2.3,Phases=3,Linecode=CABA06_3_3,Length=0.022470000,Units=km
new line.TR100769 bus1=BMT216822B.1.2.3,bus2=BMT322998B.1.2.3,Phases=3,Linecode=CAB103_3_3,Length=0.025708000,Units=km
new line.TR100776 bus1=BMT159322431.1.2.3,bus2=BMT216822B.1.2.3,Phases=3,Linecode=CAB103_3_3,Length=0.028859000,Units=km
new line.TR100783 bus1=BMT159322431.1.2.3,bus2=BMT216857B.1.2.3,Phases=3,Linecode=CABA08_3_3,Length=0.033239000,Units=km
new line.TR100790 bus1=BMT216857B.1.2.3,bus2=BMT216864B.1.2.3,Phases=3,Linecode=CABA08_3_3,Length=0.034925000,Units=km
new line.TR100797 bus1=BMT216864B.1.2.3,bus2=BMT119971751.1.2.3,Phases=3,Linecode=CABA08_3_3,Length=0.035899000,Units=km
new line.TR100804 bus1=BMT159358712.1.2.3,bus2=BMT216885B.1.2.3,Phases=3,Linecode=CABA08_3_3,Length=0.030803000,Units=km
new line.TR100811 bus1=BMT216885B.1.2.3,bus2=BMT159358713.1.2.3,Phases=3,Linecode=CABA08_3_3,Length=0.046321000,Units=km
new line.TR100818 bus1=BMT159358713.1.2.3,bus2=BMT216899B.1.2.3,Phases=3,Linecode=CABA08_3_3,Length=0.045118000,Units=km
new line.TR100825 bus1=BMT216899B.1.2.3,bus2=BMT119972003.1.2.3,Phases=3,Linecode=CABA08_3_3,Length=0.029830000,Units=km
new line.TR100832 bus1=BMT119972003.1.2.3,bus2=BMT159358714.1.2.3,Phases=3,Linecode=CABA08_3_3,Length=0.040258000,Units=km
new line.TR100839 bus1=BMT149992187.1.2.3,bus2=BMT3084484B.1.2.3,Phases=3,Linecode=CABA06_3_3,Length=0.038324000,Units=km
new line.TR100846 bus1=BMT169706089.1.2.3,bus2=BMT217193B.1.2.3,Phases=3,Linecode=CABA08_3_3,Length=0.037105000,Units=km
new line.TR12157013 bus1=BMT149784639.1.2.3,bus2=BMT156770349.1.2.3,Phases=3,Linecode=CABA06_3_3,Length=0.034363000,Units=km
new line.TR12157015 bus1=BMT149788798.1.2.3,bus2=BMT8753449B.1.2.3,Phases=3,Linecode=CABA06_3_3,Length=0.039201000,Units=km
new line.TR12157019 bus1=BMT8753449B.1.2.3,bus2=BMT8753452B.1.2.3,Phases=3,Linecode=CABA06_3_3,Length=0.007071000,Units=km
new line.TR12157027 bus1=BMT8753452B.1.2.3,bus2=BMT151845007.1.2.3,Phases=3,Linecode=CABA06_3_3,Length=0.028016000,Units=km
new line.TR12157038 bus1=BMT149788798.1.2.3,bus2=BMT8753469B.1.2.3,Phases=3,Linecode=CABA06_3_3,Length=0.040221000,Units=km
new line.TR12157039 bus1=BMT8753469B.1.2.3,bus2=BMT8753470B.1.2.3,Phases=3,Linecode=CABA06_3_3,Length=0.036397000,Units=km
new line.TR12157040 bus1=BMT8753470B.1.2.3,bus2=BMT8753472B.1.2.3,Phases=3,Linecode=CABA06_3_3,Length=0.036397000,Units=km
new line.TR12157041 bus1=BMT8753472B.1.2.3,bus2=BMT151845006.1.2.3,Phases=3,Linecode=CABA06_3_3,Length=0.039201000,Units=km
new line.TR12157042 bus1=BMT151845008.1.2.3,bus2=BMT8753475B.1.2.3,Phases=3,Linecode=CABA06_3_3,Length=0.007000000,Units=km
new line.TR12157043 bus1=BMT8753475B.1.2.3,bus2=BMT8753477B.1.2.3,Phases=3,Linecode=CABA06_3_3,Length=0.039405000,Units=km
new line.TR12157044 bus1=BMT8753477B.1.2.3,bus2=BMT151845009.1.2.3,Phases=3,Linecode=CABA06_3_3,Length=0.030230000,Units=km
new line.TR12157045 bus1=BMT151845009.1.2.3,bus2=BMT8753480B.1.2.3,Phases=3,Linecode=CABA06_3_3,Length=0.030477000,Units=km
new line.TR12157046 bus1=BMT8753480B.1.2.3,bus2=BMT8753482B.1.2.3,Phases=3,Linecode=CABA06_3_3,Length=0.039821000,Units=km
new line.TR12157047 bus1=BMT8753482B.1.2.3,bus2=BMT8753483B.1.2.3,Phases=3,Linecode=CABA06_3_3,Length=0.027201000,Units=km
new line.TR12157048 bus1=BMT8753483B.1.2.3,bus2=BMT8753495B.1.2.3,Phases=3,Linecode=CABA06_3_3,Length=0.027457000,Units=km
new line.TR12157049 bus1=BMT8753495B.1.2.3,bus2=BMT8753496B.1.2.3,Phases=3,Linecode=CABA06_3_3,Length=0.026625000,Units=km
new line.TR12157050 bus1=BMT8753496B.1.2.3,bus2=BMT8753501B.1.2.3,Phases=3,Linecode=CABA06_3_3,Length=0.024838000,Units=km
new line.TR12157051 bus1=BMT8753501B.1.2.3,bus2=BMT151845010.1.2.3,Phases=3,Linecode=CABA06_3_3,Length=0.028598000,Units=km
new line.TR12157053 bus1=BMT151845006.1.2.3,bus2=BMT8753521B.1.2.3,Phases=3,Linecode=CABA06_3_3,Length=0.025610000,Units=km
new line.TR12157068 bus1=BMT8753521B.1.2.3,bus2=BMT8753530B.1.2.3,Phases=3,Linecode=CABA06_3_3,Length=0.027201000,Units=km
new line.TR12157069 bus1=BMT8753530B.1.2.3,bus2=BMT8753534B.1.2.3,Phases=3,Linecode=CABA06_3_3,Length=0.024998000,Units=km
new line.TR12157070 bus1=BMT8753534B.1.2.3,bus2=BMT8753535B.1.2.3,Phases=3,Linecode=CABA06_3_3,Length=0.024206000,Units=km
...
