2024_89_CemigReconfigurationCases/1_AlimsCemig/AXAU10/AXAU10Transformadores.dss
new transformer.1392992 Phases=3,Windings=2,Buses=[BMT159358934.1.2.3 BBT148734084.1.2.3.0],Conns=[delta wye],kvs=[13.8 0.22],kvas=[45.000000000 45.000000000],Taps=[1,1.000000000],XHL=3.636000000,%loadloss=1.522000000,%noloadloss=0.377777000
new transformer.1393013 Phases=3,Windings=2,Buses=[BMT159358937.1.2.3 BBT148736464.1.2.3.0],Conns=[delta wye],kvs=[13.8 0.22],kvas=[45.000000000 45.000000000],Taps=[1,1.000000000],XHL=3.636000000,%loadloss=1.522000000,%noloadloss=0.377777000
new transformer.1393017 Phases=3,Windings=2,Buses=[BMT159358936.1.2.3 BBT148737493.1.2.3.0],Conns=[delta wye],kvs=[13.8 0.22],kvas=[45.000000000 45.000000000],Taps=[1,1.000000000],XHL=3.636000000,%loadloss=1.522000000,%noloadloss=0.377777000
new transformer.1393118 Phases=3,Windings=2,Buses=[BMT159358931.1.2.3 BBT148760493.1.2.3.0],Conns=[delta wye],kvs=[13.8 0.22],kvas=[45.000000000 45.000000000],Taps=[1,1.000000000],XHL=3.636000000,%loadloss=1.522000000,%noloadloss=0.377777000
new transformer.1393438 Phases=3,Windings=2,Buses=[BMT161934395.1.2.3 BBT148835622.1.2.3.0],Conns=[delta wye],kvs=[13.8 0.22],kvas=[45.000000000 45.000000000],Taps=[1,1.000000000],XHL=3.636000000,%loadloss=1.522000000,%noloadloss=0.377777000
new transformer.1393443 Phases=3,Windings=2,Buses=[BMT161934399.1.2.3 BBT148836936.1.2.3.0],Conns=[delta wye],kvs=[13.8 0.22],kvas=[45.000000000 45.000000000],Taps=[1,1.000000000],XHL=3.636000000,%loadloss=1.522000000,%noloadloss=0.377777000
new transformer.1393444 Phases=3,Windings=2,Buses=[BMT161934397.1.2.3 BBT148837005.1.2.3.0],Conns=[delta wye],kvs=[13.8 0.22],kvas=[45.000000000 45.000000000],Taps=[1,1.000000000],XHL=3.636000000,%loadloss=1.522000000,%noloadloss=0.377777000
new transformer.1393452 Phases=3,Windings=2,Buses=[BMT161934403.1.2.3 BBT148837585.1.2.3.0],Conns=[delta wye],kvs=[13.8 0.22],kvas=[45.000000000 45.000000000],Taps=[1,1.000000000],XHL=3.636000000,%loadloss=1.522000000,%noloadloss=0.377777000
new transformer.1393458 Phases=3,Windings=2,Buses=[BMT161909077.1.2.3 BBT148838282.1.2.3.0],Conns=[delta wye],kvs=[13.8 0.22],kvas=[45.000000000 45.000000000],Taps=[1,1.000000000],XHL=3.636000000,%loadloss=1.522000000,%noloadloss=0.377777000
new transformer.1393468 Phases=3,Windings=2,Buses=[BMT154354544.1.2.3 BBT148839668.1.2.3.0],Conns=[delta wye],kvs=[13.8 0.22],kvas=[45.000000000 45.000000000],Taps=[1,1.000000000],XHL=3.636000000,%loadloss=1.522000000,%noloadloss=0.377777000
new transformer.1393470 Phases=3,Windings=2,Buses=[BMT154354547.1.2.3 BBT148839763.1.2.3.0],Conns=[delta wye],kvs=[13.8 0.22],kvas=[45.000000000 45.000000000],Taps=[1,1.000000000],XHL=3.636000000,%loadloss=1.522000000,%noloadloss=0.377777000
new transformer.1393472 Phases=3,Windings=2,Buses=[BMT161934400.1.2.3 BBT148839934.1.2.3.0],Conns=[delta wye],kvs=[13.8 0.22],kvas=[45.000000000 45.000000000],Taps=[1,1.000000000],XHL=3.636000000,%loadloss=1.522000000,%noloadloss=0.377777000
new transformer.1393474 Phases=3,Windings=2,Buses=[BMT154354548.1.2.3 BBT148840216.1.2.3.0],Conns=[delta wye],kvs=[13.8 0.22],kvas=[45.000000000 45.000000000],Taps=[1,1.000000000],XHL=3.636000000,%loadloss=1.522000000,%noloadloss=0.377777000
new transformer.1393477 Phases=3,Windings=2,Buses=[BMT154354546.1.2.3 BBT148840345.1.2.3.0],Conns=[delta wye],kvs=[13.8 0.22],kvas=[45.000000000 45.000000000],Taps=[1,1.000000000],XHL=3.636000000,%loadloss=1.522000000,%noloadloss=0.377777000
new transformer.1393482 Phases=3,Windings=2,Buses=[BMT161934394.1.2.3 BBT148840756.1.2.3.0],Conns=[delta wye],kvs=[13.8 0.22],kvas=[45.000000000 45.000000000],Taps=[1,1.000000000],XHL=3.636000000,%loadloss=1.522000000,%noloadloss=0.377777000
new transformer.1393511 Phases=3,Windings=2,Buses=[BMT161909080.1.2.3 BBT148844437.1.2.3.0],Conns=[delta wye],kvs=[13.8 0.22],kvas=[45.000000000 45.000000000],Taps=[1,1.000000000],XHL=3.636000000,%loadloss=1.522000000,%noloadloss=0.377777000
new transformer.1393512 Phases=3,Windings=2,Buses=[BMT161909078.1.2.3 BBT148844494.1.2.3.0],Conns=[delta wye],kvs=[13.8 0.22],kvas=[45.000000000 45.000000000],Taps=[1,1.000000000],XHL=3.636000000,%loadloss=1.522000000,%noloadloss=0.377777000
new transformer.1417879 Phases=3,Windings=2,Buses=[BMT160983244.1.2.3 BBT154619379.1.2.3.0],Conns=[delta wye],kvs=[13.8 0.22],kvas=[150.000000000 150.000000000],Taps=[1,1.000000000],XHL=3.805000000,%loadloss=1.127000000,%noloadloss=0.280000000
new transformer.1428671 Phases=3,Windings=2,Buses=[BMT162023206.1.2.3 BBT156932606.1.2.3.0],Conns=[delta wye],kvs=[13.8 0.22],kvas=[45.000000000 45.000000000],Taps=[1,1.000000000],XHL=3.636000000,%loadloss=1.522000000,%noloadloss=0.377777000
new transformer.1428672 Phases=3,Windings=2,Buses=[BMT162023205.1.2.3 BBT156932638.1.2.3.0],Conns=[delta wye],kvs=[13.8 0.22],kvas=[45.000000000 45.000000000],Taps=[1,1.000000000],XHL=3.636000000,%loadloss=1.522000000,%noloadloss=0.377777000
new transformer.1428673 Phases=3,Windings=2,Buses=[BMT162023203.1.2.3 BBT156932689.1.2.3.0],Conns=[delta wye],kvs=[13.8 0.22],kvas=[45.000000000 45.000000000],Taps=[1,1.000000000],XHL=3.636000000,%loadloss=1.522000000,%noloadloss=0.377777000
new transformer.1428674 Phases=3,Windings=2,Buses=[BMT162023202.1.2.3 BBT156932706.1.2.3.0],Conns=[delta wye],kvs=[13.8 0.22],kvas=[75.000000000 75.000000000],Taps=[1,1.000000000],XHL=3.721000000,%loadloss=1.340000000,%noloadloss=0.340000000
new transformer.1428675 Phases=3,Windings=2,Buses=[BMT162023209.1.2.3 BBT156932735.1.2.3.0],Conns=[delta wye],kvs=[13.8 0.22],kvas=[45.000000000 45.000000000],Taps=[1,1.000000000],XHL=3.636000000,%loadloss=1.522000000,%noloadloss=0.377777000
new transformer.1428676 Phases=3,Windings=2,Buses=[BMT161933684.1.2.3 BBT156932756.1.2.3.0],Conns=[delta wye],kvs=[13.8 0.22],kvas=[45.000000000 45.000000000],Taps=[1,1.000000000],XHL=3.636000000,%loadloss=1.522000000,%noloadloss=0.377777000
new transformer.1428678 Phases=3,Windings=2,Buses=[BMT161933683.1.2.3 BBT156932782.1.2.3.0],Conns=[delta wye],kvs=[13.8 0.22],kvas=[75.000000000 75.000000000],Taps=[1,1.000000000],XHL=3.721000000,%loadloss=1.340000000,%noloadloss=0.340000000
new transformer.1428679 Phases=3,Windings=2,Buses=[BMT161933682.1.2.3 BBT156932821.1.2.3.0],Conns=[delta wye],kvs=[13.8 0.22],kvas=[45.000000000 45.000000000],Taps=[1,1.000000000],XHL=3.636000000,%loadloss=1.522000000,%noloadloss=0.377777000
new transformer.1428683 Phases=3,Windings=2,Buses=[BMT161933681.1.2.3 BBT156933141.1.2.3.0],Conns=[delta wye],kvs=[13.8 0.22],kvas=[45.000000000 45.000000000],Taps=[1,1.000000000],XHL=3.636000000,%loadloss=1.522000000,%noloadloss=0.377777000
new transformer.1428684 Phases=3,Windings=2,Buses=[BMT162023616.1.2.3 BBT156933213.1.2.3.0],Conns=[delta wye],kvs=[13.8 0.22],kvas=[45.000000000 45.000000000],Taps=[1,1.000000000],XHL=3.636000000,%loadloss=1.522000000,%noloadloss=0.377777000
new transformer.1428685 Phases=3,Windings=2,Buses=[BMT161910802.1.2.3 BBT156933221.1.2.3.0],Conns=[delta wye],kvs=[13.8 0.22],kvas=[45.000000000 45.000000000],Taps=[1,1.000000000],XHL=3.636000000,%loadloss=1.522000000,%noloadloss=0.377777000
new transformer.1090060 Phases=3,Windings=2,Buses=[BMT155673191.1.2.3 BBT138859368.1.2.3.0],Conns=[delta wye],kvs=[13.8 0.22],kvas=[75.000000000 75.000000000],Taps=[1,1.000000000],XHL=3.721000000,%loadloss=1.340000000,%noloadloss=0.340000000
new transformer.1397479 Phases=3,Windings=2,Buses=[BMT151845007.1.2.3 BBT149785237.1.2.3.0],Conns=[delta wye],kvs=[13.8 0.22],kvas=[75.000000000 75.000000000],Taps=[1,1.000000000],XHL=3.721000000,%loadloss=1.340000000,%noloadloss=0.340000000
new transformer.1397484 Phases=3,Windings=2,Buses=[BMT151845010.1.2.3 BBT149786015.1.2.3.0],Conns=[delta wye],kvs=[13.8 0.22],kvas=[45.000000000 45.000000000],Taps=[1,1.000000000],XHL=3.636000000,%loadloss=1.522000000,%noloadloss=0.377777000
new transformer.1397485 Phases=3,Windings=2,Buses=[BMT151845009.1.2.3 BBT149786038.1.2.3.0],Conns=[delta wye],kvs=[13.8 0.22],kvas=[45.000000000 45.000000000],Taps=[1,1.000000000],XHL=3.636000000,%loadloss=1.522000000,%noloadloss=0.377777000
new transformer.1397498 Phases=3,Windings=2,Buses=[BMT151844465.1.2.3 BBT149788003.1.2.3.0],Conns=[delta wye],kvs=[13.8 0.22],kvas=[45.000000000 45.000000000],Taps=[1,1.000000000],XHL=3.636000000,%loadloss=1.522000000,%noloadloss=0.377777000
new transformer.1397499 Phases=3,Windings=2,Buses=[BMT151845005.1.2.3 BBT149788093.1.2.3.0],Conns=[delta wye],kvs=[13.8 0.22],kvas=[45.000000000 45.000000000],Taps=[1,1.000000000],XHL=3.636000000,%loadloss=1.522000000,%noloadloss=0.377777000
new transformer.1397501 Phases=3,Windings=2,Buses=[BMT151845004.1.2.3 BBT149788190.1.2.3.0],Conns=[delta wye],kvs=[13.8 0.22],kvas=[45.000000000 45.000000000],Taps=[1,1.000000000],XHL=3.636000000,%loadloss=1.522000000,%noloadloss=0.377777000
new transformer.1397579 Phases=3,Windings=2,Buses=[BMT151532486.1.2.3 BBT149800404.1.2.3.0],Conns=[delta wye],kvs=[13.8 0.22],kvas=[45.000000000 45.000000000],Taps=[1,1.000000000],XHL=3.636000000,%loadloss=1.522000000,%noloadloss=0.377777000
new transformer.1397595 Phases=1,Windings=3,Buses=[BMT151173795.2 BBT149802315.1.0 BBT149802315.0.2],Conns=[wye wye wye],kvs=[7.967 0.12 0.12],kvas=[35.000000000 35.000000000 35.000000000],Taps=[1,1.000000000,1.000000000],XHL=2.475000000,XHT=2.475000000,XLT=1.650000000,%loadloss=1.293000000,%noloadloss=0.342857000
new transformer.1397607 Phases=3,Windings=2,Buses=[BMT151530956.1.2.3 BBT149804792.1.2.3.0],Conns=[delta wye],kvs=[13.8 0.22],kvas=[45.000000000 45.000000000],Taps=[1,1.000000000],XHL=3.636000000,%loadloss=1.522000000,%noloadloss=0.377777000
new transformer.1397610 Phases=3,Windings=2,Buses=[BMT151844183.1.2.3 BBT149805327.1.2.3.0],Conns=[delta wye],kvs=[13.8 0.22],kvas=[45.000000000 45.000000000],Taps=[1,1.000000000],XHL=3.636000000,%loadloss=1.522000000,%noloadloss=0.377777000
new transformer.1397611 Phases=3,Windings=2,Buses=[BMT151844185.1.2.3 BBT149805474.1.2.3.0],Conns=[delta wye],kvs=[13.8 0.22],kvas=[45.000000000 45.000000000],Taps=[1,1.000000000],XHL=3.636000000,%loadloss=1.522000000,%noloadloss=0.377777000
new transformer.1397612 Phases=3,Windings=2,Buses=[BMT151844184.1.2.3 BBT149805507.1.2.3.0],Conns=[delta wye],kvs=[13.8 0.22],kvas=[45.000000000 45.000000000],Taps=[1,1.000000000],XHL=3.636000000,%loadloss=1.522000000,%noloadloss=0.377777000
new transformer.1397613 Phases=3,Windings=2,Buses=[BMT151361656.1.2.3 BBT149805542.1.2.3.0],Conns=[delta wye],kvs=[13.8 0.22],kvas=[45.000000000 45.000000000],Taps=[1,1.000000000],XHL=3.636000000,%loadloss=1.522000000,%noloadloss=0.377777000
new transformer.1397614 Phases=3,Windings=2,Buses=[BMT151844186.1.2.3 BBT149805683.1.2.3.0],Conns=[delta wye],kvs=[13.8 0.22],kvas=[45.000000000 45.000000000],Taps=[1,1.000000000],XHL=3.636000000,%loadloss=1.522000000,%noloadloss=0.377777000
new transformer.1397615 Phases=3,Windings=2,Buses=[BMT151844466.1.2.3 BBT149805703.1.2.3.0],Conns=[delta wye],kvs=[13.8 0.22],kvas=[75.000000000 75.000000000],Taps=[1,1.000000000],XHL=3.721000000,%loadloss=1.340000000,%noloadloss=0.340000000
new transformer.1397628 Phases=3,Windings=2,Buses=[BMT153049999.1.2.3 BBT149808257.1.2.3.0],Conns=[delta wye],kvs=[13.8 0.22],kvas=[45.000000000 45.000000000],Taps=[1,1.000000000],XHL=3.636000000,%loadloss=1.522000000,%noloadloss=0.377777000
new transformer.1397633 Phases=3,Windings=2,Buses=[BMT151532485.1.2.3 BBT149810009.1.2.3.0],Conns=[delta wye],kvs=[13.8 0.22],kvas=[45.000000000 45.000000000],Taps=[1,1.000000000],XHL=3.636000000,%loadloss=1.522000000,%noloadloss=0.377777000
new transformer.1397635 Phases=3,Windings=2,Buses=[BMT153049996.1.2.3 BBT149810088.1.2.3.0],Conns=[delta wye],kvs=[13.8 0.22],kvas=[45.000000000 45.000000000],Taps=[1,1.000000000],XHL=3.636000000,%loadloss=1.522000000,%noloadloss=0.377777000
new transformer.1397636 Phases=3,Windings=2,Buses=[BMT153049998.1.2.3 BBT149810407.1.2.3.0],Conns=[delta wye],kvs=[13.8 0.22],kvas=[45.000000000 45.000000000],Taps=[1,1.000000000],XHL=3.636000000,%loadloss=1.522000000,%noloadloss=0.377777000
new transformer.1397640 Phases=3,Windings=2,Buses=[BMT151530955.1.2.3 BBT149810726.1.2.3.0],Conns=[delta wye],kvs=[13.8 0.22],kvas=[45.000000000 45.000000000],Taps=[1,1.000000000],XHL=3.636000000,%loadloss=1.522000000,%noloadloss=0.377777000
new transformer.1405174 Phases=3,Windings=2,Buses=[BMT168067573.1.2.3 BBT151662714.1.2.3.0],Conns=[delta wye],kvs=[13.8 0.22],kvas=[75.000000000 75.000000000],Taps=[1,1.000000000],XHL=3.721000000,%loadloss=1.340000000,%noloadloss=0.340000000
new transformer.1437889 Phases=3,Windings=2,Buses=[BMT169242343.1.2.3 BBT158723110.1.2.3.0],Conns=[delta wye],kvs=[13.8 0.22],kvas=[150.000000000 150.000000000],Taps=[1,1.000000000],XHL=3.805000000,%loadloss=1.127000000,%noloadloss=0.280000000
new transformer.39225 Phases=3,Windings=2,Buses=[BMT136597983.1.2.3 BBT235337.1.2.3.0],Conns=[delta wye],kvs=[13.8 0.22],kvas=[75.000000000 75.000000000],Taps=[1,1.000000000],XHL=3.721000000,%loadloss=1.340000000,%noloadloss=0.340000000
new transformer.39267 Phases=3,Windings=2,Buses=[BMT153817080.1.2.3 BBT236135.1.2.3.0],Conns=[delta wye],kvs=[13.8 0.22],kvas=[150.000000000 150.000000000],Taps=[1,1.000000000],XHL=3.805000000,%loadloss=1.127000000,%noloadloss=0.280000000
new transformer.39274 Phases=3,Windings=2,Buses=[BMT135113563.1.2.3 BBT236205.1.2.3.0],Conns=[delta wye],kvs=[13.8 0.22],kvas=[45.000000000 45.000000000],Taps=[1,1.000000000],XHL=3.636000000,%loadloss=1.522000000,%noloadloss=0.377777000
new transformer.39288 Phases=3,Windings=2,Buses=[BMT159398258.1.2.3 BBT236303.1.2.3.0],Conns=[delta wye],kvs=[13.8 0.22],kvas=[75.000000000 75.000000000],Taps=[1,1.000000000],XHL=3.721000000,%loadloss=1.340000000,%noloadloss=0.340000000
new transformer.39869 Phases=3,Windings=2,Buses=[BMT165518228.1.2.3 BBT244122.1.2.3.0],Conns=[delta wye],kvs=[13.8 0.22],kvas=[150.000000000 150.000000000],Taps=[1,1.000000000],XHL=3.805000000,%loadloss=1.127000000,%noloadloss=0.280000000
new transformer.1068766 Phases=3,Windings=2,Buses=[BMT136596345.1.2.3 BBT132816674.1.2.3.0],Conns=[delta wye],kvs=[13.8 0.22],kvas=[150.000000000 150.000000000],Taps=[1,1.000000000],XHL=3.805000000,%loadloss=1.127000000,%noloadloss=0.280000000
new transformer.1068773 Phases=3,Windings=2,Buses=[BMT168661937.1.2.3 BBT132817514.1.2.3.0],Conns=[delta wye],kvs=[13.8 0.22],kvas=[150.000000000 150.000000000],Taps=[1,1.000000000],XHL=3.805000000,%loadloss=1.127000000,%noloadloss=0.280000000
new transformer.1068829 Phases=3,Windings=2,Buses=[BMT136634145.1.2.3 BBT132826201.1.2.3.0],Conns=[delta wye],kvs=[13.8 0.22],kvas=[150.000000000 150.000000000],Taps=[1,1.000000000],XHL=3.805000000,%loadloss=1.127000000,%noloadloss=0.280000000
new transformer.1069025 Phases=1,Windings=3,Buses=[BMT162405725.3 BBT132890020.1.0 BBT132890020.0.2],Conns=[wye wye wye],kvs=[7.967 0.12 0.12],kvas=[5.000000000 5.000000000 5.000000000],Taps=[1,1.000000000,1.000000000],XHL=1.628000000,XHT=1.628000000,XLT=1.085000000,%loadloss=1.900000000,%noloadloss=0.600000000
new transformer.1084362 Phases=3,Windings=2,Buses=[BMT165518230.1.2.3 BBT137584423.1.2.3.0],Conns=[delta wye],kvs=[13.8 0.22],kvas=[75.000000000 75.000000000],Taps=[1,1.000000000],XHL=3.721000000,%loadloss=1.340000000,%noloadloss=0.340000000
new transformer.1085608 Phases=1,Windings=3,Buses=[BMT161205876.2 BBT137880222.1.0 BBT137880222.0.2],Conns=[wye wye wye],kvs=[7.967 0.12 0.12],kvas=[5.000000000 5.000000000 5.000000000],Taps=[1,1.000000000,1.000000000],XHL=1.628000000,XHT=1.628000000,XLT=1.085000000,%loadloss=1.900000000,%noloadloss=0.600000000
new transformer.1099993 Phases=3,Windings=2,Buses=[BMT170220292.1.2.3 BBT141430146.1.2.3.0],Conns=[delta wye],kvs=[13.8 0.22],kvas=[30.000000000 30.000000000],Taps=[1,1.000000000],XHL=3.564000000,%loadloss=1.667000000,%noloadloss=0.433333000
new transformer.1479424 Phases=1,Windings=3,Buses=[BMT169706095.3 BBT168025728.1.0 BBT168025728.0.2],Conns=[wye wye wye],kvs=[7.967 0.12 0.12],kvas=[35.000000000 35.000000000 35.000000000],Taps=[1,1.000000000,1.000000000],XHL=2.475000000,XHT=2.475000000,XLT=1.650000000,%loadloss=1.293000000,%noloadloss=0.342857000
new transformer.39386 Phases=3,Windings=2,Buses=[BMT159398328.1.2.3 BBT237493.1.2.3.0],Conns=[delta wye],kvs=[13.8 0.22],kvas=[150.000000000 150.000000000],Taps=[1,1.000000000],XHL=3.805000000,%loadloss=1.127000000,%noloadloss=0.280000000
new transformer.39393 Phases=3,Windings=2,Buses=[BMT168840760.1.2.3 BBT237514.1.2.3.0],Conns=[delta wye],kvs=[13.8 0.22],kvas=[75.000000000 75.000000000],Taps=[1,1.000000000],XHL=3.721000000,%loadloss=1.340000000,%noloadloss=0.340000000
new transformer.39400 Phases=3,Windings=2,Buses=[BMT136596331.1.2.3 BBT237556.1.2.3.0],Conns=[delta wye],kvs=[13.8 0.22],kvas=[45.000000000 45.000000000],Taps=[1,1.000000000],XHL=3.636000000,%loadloss=1.522000000,%noloadloss=0.377777000
new transformer.39414 Phases=3,Windings=2,Buses=[BMT159398330.1.2.3 BBT237780.1.2.3.0],Conns=[delta wye],kvs=[13.8 0.22],kvas=[150.000000000 150.000000000],Taps=[1,1.000000000],XHL=3.805000000,%loadloss=1.127000000,%noloadloss=0.280000000
new transformer.39421 Phases=3,Windings=2,Buses=[BMT159398329.1.2.3 BBT237892.1.2.3.0],Conns=[delta wye],kvs=[13.8 0.22],kvas=[45.000000000 45.000000000],Taps=[1,1.000000000],XHL=3.636000000,%loadloss=1.522000000,%noloadloss=0.377777000
new transformer.39428 Phases=3,Windings=2,Buses=[BMT159398326.1.2.3 BBT238032.1.2.3.0],Conns=[delta wye],kvs=[13.8 0.22],kvas=[75.000000000 75.000000000],Taps=[1,1.000000000],XHL=3.721000000,%loadloss=1.340000000,%noloadloss=0.340000000
new transformer.39988 Phases=3,Windings=2,Buses=[BMT157267681.1.2.3 BBT245627.1.2.3.0],Conns=[delta wye],kvs=[13.8 0.22],kvas=[75.000000000 75.000000000],Taps=[1,1.000000000],XHL=3.721000000,%loadloss=1.340000000,%noloadloss=0.340000000
new transformer.40037 Phases=3,Windings=2,Buses=[BMT165518229.1.2.3 BBT246292.1.2.3.0],Conns=[delta wye],kvs=[13.8 0.22],kvas=[100.000000000 100.000000000],Taps=[1,1.000000000],XHL=3.771000000,%loadloss=1.218000000,%noloadloss=0.335000000
new transformer.40534 Phases=3,Windings=2,Buses=[BMT136674374.1.2.3 BBT253607.1.2.3.0],Conns=[delta wye],kvs=[13.8 0.22],kvas=[75.000000000 75.000000000],Taps=[1,1.000000000],XHL=3.721000000,%loadloss=1.340000000,%noloadloss=0.340000000
new transformer.40555 Phases=3,Windings=2,Buses=[BMT152560691.1.2.3 BBT253971.1.2.3.0],Conns=[delta wye],kvs=[13.8 0.22],kvas=[100.000000000 100.000000000],Taps=[1,1.000000000],XHL=3.771000000,%loadloss=1.218000000,%noloadloss=0.335000000
new transformer.40576 Phases=3,Windings=2,Buses=[BMT119973578.1.2.3 BBT254272.1.2.3.0],Conns=[delta wye],kvs=[13.8 0.22],kvas=[75.000000000 75.000000000],Taps=[1,1.000000000],XHL=3.721000000,%loadloss=1.340000000,%noloadloss=0.340000000
new transformer.41367 Phases=1,Windings=3,Buses=[BMT119972395.2 BBT266165.1.0 BBT266165.0.2],Conns=[wye wye wye],kvs=[7.967 0.12 0.12],kvas=[35.000000000 35.000000000 35.000000000],Taps=[1,1.000000000,1.000000000],XHL=2.475000000,XHT=2.475000000,XLT=1.650000000,%loadloss=1.293000000,%noloadloss=0.342857000
new transformer.41381 Phases=1,Windings=3,Buses=[BMT119972346.3 BBT266242.1.0 BBT266242.0.2],Conns=[wye wye wye],kvs=[7.967 0.12 0.12],kvas=[35.000000000 35.000000000 35.000000000],Taps=[1,1.000000000,1.000000000],XHL=2.475000000,XHT=2.475000000,XLT=1.650000000,%loadloss=1.293000000,%noloadloss=0.342857000
new transformer.41388 Phases=1,Windings=3,Buses=[BMT119972360.2 BBT266305.1.0 BBT266305.0.2],Conns=[wye wye wye],kvs=[7.967 0.12 0.12],kvas=[35.000000000 35.000000000 35.000000000],Taps=[1,1.000000000,1.000000000],XHL=2.475000000,XHT=2.475000000,XLT=1.650000000,%loadloss=1.293000000,%noloadloss=0.342857000
new transformer.41395 Phases=3,Windings=2,Buses=[BMT170220289.1.2.3 BBT266340.1.2.3.0],Conns=[delta wye],kvs=[13.8 0.22],kvas=[30.000000000 30.000000000],Taps=[1,1.000000000],XHL=3.564000000,%loadloss=1.667000000,%noloadloss=0.433333000
new transformer.543792 Phases=1,Windings=3,Buses=[BMT119972759.3 BBT3155485.1.0 BBT3155485.0.2],Conns=[wye wye wye],kvs=[7.967 0.12 0.12],kvas=[5.000000000 5.000000000 5.000000000],Taps=[1,1.000000000,1.000000000],XHL=1.628000000,XHT=1.628000000,XLT=1.085000000,%loadloss=1.900000000,%noloadloss=0.600000000
new transformer.570000 Phases=1,Windings=3,Buses=[BMT119972976.2 BBT3365961.1.0 BBT3365961.0.2],Conns=[wye wye wye],kvs=[7.967 0.12 0.12],kvas=[15.000000000 15.000000000 15.000000000],Taps=[1,1.000000000,1.000000000],XHL=2.123000000,XHT=2.123000000,XLT=1.415000000,%loadloss=1.600000000,%noloadloss=0.400000000
new transformer.578582 Phases=3,Windings=2,Buses=[BMT149992198.1.2.3 BBT3492556.1.2.3.0],Conns=[delta wye],kvs=[13.8 0.22],kvas=[75.000000000 75.000000000],Taps=[1,1.000000000],XHL=3.721000000,%loadloss=1.340000000,%noloadloss=0.340000000
new transformer.1061241 Phases=3,Windings=2,Buses=[BMT140706255.1.2.3 BBT129524546.1.2.3.0],Conns=[delta wye],kvs=[13.8 0.22],kvas=[250.000000000 250.000000000],Taps=[1,1.000000000],XHL=4.881000000,%loadloss=0.990000000,%noloadloss=0.280000000
new transformer.1061248 Phases=3,Windings=2,Buses=[BMT140706248.1.2.3 BBT129528039.1.2.3.0],Conns=[delta wye],kvs=[13.8 0.22],kvas=[45.000000000 45.000000000],Taps=[1,1.000000000],XHL=3.636000000,%loadloss=1.522000000,%noloadloss=0.377777000
new transformer.1076648 Phases=3,Windings=2,Buses=[BMT136634138.1.2.3 BBT135021758.1.2.3.0],Conns=[delta wye],kvs=[13.8 0.22],kvas=[45.000000000 45.000000000],Taps=[1,1.000000000],XHL=3.636000000,%loadloss=1.522000000,%noloadloss=0.377777000
new transformer.1076655 Phases=3,Windings=2,Buses=[BMT135027624.1.2.3 BBT135027638.1.2.3.0],Conns=[delta wye],kvs=[13.8 0.22],kvas=[150.000000000 150.000000000],Taps=[1,1.000000000],XHL=3.805000000,%loadloss=1.127000000,%noloadloss=0.280000000
new transformer.1398610 Phases=3,Windings=2,Buses=[BMT151173793.1.2.3 BBT149988185.1.2.3.0],Conns=[delta wye],kvs=[13.8 0.22],kvas=[75.000000000 75.000000000],Taps=[1,1.000000000],XHL=3.721000000,%loadloss=1.340000000,%noloadloss=0.340000000
new transformer.1403291 Phases=3,Windings=2,Buses=[BMT151801580.1.2.3 BBT151225534.1.2.3.0],Conns=[delta wye],kvs=[13.8 0.22],kvas=[500.000000000 500.000000000],Taps=[1,1.000000000],XHL=4.895000000,%loadloss=1.020000000,%noloadloss=0.260000000
new transformer.1415409 Phases=3,Windings=2,Buses=[BMT153997146.1.2.3 BBT153994770.1.2.3.0],Conns=[delta wye],kvs=[13.8 0.22],kvas=[509.000000000 509.000000000],Taps=[1,1.000000000],XHL=7.876000000,%loadloss=1.107000000,%noloadloss=0.333988000
new transformer.1421439 Phases=3,Windings=2,Buses=[BMT155367628.1.2.3 BBT155367481.1.2.3.0],Conns=[delta wye],kvs=[13.8 0.22],kvas=[75.000000000 75.000000000],Taps=[1,1.000000000],XHL=3.721000000,%loadloss=1.340000000,%noloadloss=0.340000000
new transformer.1505549 Phases=1,Windings=3,Buses=[BMT173228973.2 BBT173228974.1.0 BBT173228974.0.2],Conns=[wye wye wye],kvs=[7.967 0.12 0.12],kvas=[15.000000000 15.000000000 15.000000000],Taps=[1,1.000000000,1.000000000],XHL=2.123000000,XHT=2.123000000,XLT=1.415000000,%loadloss=1.600000000,%noloadloss=0.400000000
new transformer.39302 Phases=3,Windings=2,Buses=[BMT136596338.1.2.3 BBT236492.1.2.3.0],Conns=[delta wye],kvs=[13.8 0.22],kvas=[75.000000000 75.000000000],Taps=[1,1.000000000],XHL=3.721000000,%loadloss=1.340000000,%noloadloss=0.340000000
new transformer.39344 Phases=3,Windings=2,Buses=[BMT159398260.1.2.3 BBT236961.1.2.3.0],Conns=[delta wye],kvs=[13.8 0.22],kvas=[45.000000000 45.000000000],Taps=[1,1.000000000],XHL=3.636000000,%loadloss=1.522000000,%noloadloss=0.377777000
new transformer.39358 Phases=3,Windings=2,Buses=[BMT159398253.1.2.3 BBT237080.1.2.3.0],Conns=[delta wye],kvs=[13.8 0.22],kvas=[75.000000000 75.000000000],Taps=[1,1.000000000],XHL=3.721000000,%loadloss=1.340000000,%noloadloss=0.340000000
new transformer.39799 Phases=3,Windings=2,Buses=[BMT167305386.1.2.3 BBT242946.1.2.3.0],Conns=[delta wye],kvs=[13.8 0.22],kvas=[100.000000000 100.000000000],Taps=[1,1.000000000],XHL=3.771000000,%loadloss=1.218000000,%noloadloss=0.335000000
new transformer.39820 Phases=3,Windings=2,Buses=[BMT155367631.1.2.3 BBT243247.1.2.3.0],Conns=[delta wye],kvs=[13.8 0.22],kvas=[75.000000000 75.000000000],Taps=[1,1.000000000],XHL=3.721000000,%loadloss=1.340000000,%noloadloss=0.340000000
new transformer.39841 Phases=3,Windings=2,Buses=[BMT119965395.1.2.3 BBT243604.1.2.3.0],Conns=[delta wye],kvs=[13.8 0.22],kvas=[75.000000000 75.000000000],Taps=[1,1.000000000],XHL=3.721000000,%loadloss=1.340000000,%noloadloss=0.340000000
new transformer.40198 Phases=3,Windings=2,Buses=[BMT157267679.1.2.3 BBT248448.1.2.3.0],Conns=[delta wye],kvs=[13.8 0.22],kvas=[75.000000000 75.000000000],Taps=[1,1.000000000],XHL=3.721000000,%loadloss=1.340000000,%noloadloss=0.340000000
new transformer.40212 Phases=3,Windings=2,Buses=[BMT161801240.1.2.3 BBT248721.1.2.3.0],Conns=[delta wye],kvs=[13.8 0.22],kvas=[75.000000000 75.000000000],Taps=[1,1.000000000],XHL=3.721000000,%loadloss=1.340000000,%noloadloss=0.340000000
new transformer.40744 Phases=3,Windings=2,Buses=[BMT159312392.1.2.3 BBT256757.1.2.3.0],Conns=[delta wye],kvs=[13.8 0.22],kvas=[45.000000000 45.000000000],Taps=[1,1.000000000],XHL=3.636000000,%loadloss=1.522000000,%noloadloss=0.377777000
new transformer.41150 Phases=1,Windings=3,Buses=[BMT119972927.2 BBT262840.1.0 BBT262840.0.2],Conns=[wye wye wye],kvs=[7.967 0.12 0.12],kvas=[25.000000000 25.000000000 25.000000000],Taps=[1,1.000000000,1.000000000],XHL=2.344000000,XHT=2.344000000,XLT=1.563000000,%loadloss=1.420000000,%noloadloss=0.320000000
new transformer.41157 Phases=1,Windings=3,Buses=[BMT119973025.2 BBT262896.1.0 BBT262896.0.2],Conns=[wye wye wye],kvs=[7.967 0.12 0.12],kvas=[35.000000000 35.000000000 35.000000000],Taps=[1,1.000000000,1.000000000],XHL=2.475000000,XHT=2.475000000,XLT=1.650000000,%loadloss=1.293000000,%noloadloss=0.342857000
new transformer.41171 Phases=3,Windings=2,Buses=[BMT169412124.1.2.3 BBT263099.1.2.3.0],Conns=[delta wye],kvs=[13.8 0.22],kvas=[75.000000000 75.000000000],Taps=[1,1.000000000],XHL=3.721000000,%loadloss=1.340000000,%noloadloss=0.340000000
new transformer.41192 Phases=1,Windings=3,Buses=[BMT119972920.2 BBT263526.1.0 BBT263526.0.2],Conns=[wye wye wye],kvs=[7.967 0.12 0.12],kvas=[15.000000000 15.000000000 15.000000000],Taps=[1,1.000000000,1.000000000],XHL=2.123000000,XHT=2.123000000,XLT=1.415000000,%loadloss=1.600000000,%noloadloss=0.400000000
new transformer.41206 Phases=1,Windings=3,Buses=[BMT119973046.3 BBT263687.1.0 BBT263687.0.2],Conns=[wye wye wye],kvs=[7.967 0.12 0.12],kvas=[35.000000000 35.000000000 35.000000000],Taps=[1,1.000000000,1.000000000],XHL=2.475000000,XHT=2.475000000,XLT=1.650000000,%loadloss=1.293000000,%noloadloss=0.342857000
new transformer.560809 Phases=3,Windings=2,Buses=[BMT149992199.1.2.3 BBT3266491.1.2.3.0],Conns=[delta wye],kvs=[13.8 0.22],kvas=[75.000000000 75.000000000],Taps=[1,1.000000000],XHL=3.721000000,%loadloss=1.340000000,%noloadloss=0.340000000
new transformer.560816 Phases=3,Windings=2,Buses=[BMT149992188.1.2.3 BBT3266659.1.2.3.0],Conns=[delta wye],kvs=[13.8 0.22],kvas=[75.000000000 75.000000000],Taps=[1,1.000000000],XHL=3.721000000,%loadloss=1.340000000,%noloadloss=0.340000000
new transformer.640525 Phases=3,Windings=2,Buses=[BMT165518235.1.2.3 BBT3916525.1.2.3.0],Conns=[delta wye],kvs=[13.8 0.22],kvas=[75.000000000 75.000000000],Taps=[1,1.000000000],XHL=3.721000000,%loadloss=1.340000000,%noloadloss=0.340000000
new transformer.669729 Phases=3,Windings=2,Buses=[BMT171051010.1.2.3 BBT4765079.1.2.3.0],Conns=[delta wye],kvs=[13.8 0.22],kvas=[75.000000000 75.000000000],Taps=[1,1.000000000],XHL=3.721000000,%loadloss=1.340000000,%noloadloss=0.340000000
new transformer.669736 Phases=3,Windings=2,Buses=[BMT171051009.1.2.3 BBT4765254.1.2.3.0],Conns=[delta wye],kvs=[13.8 0.22],kvas=[75.000000000 75.000000000],Taps=[1,1.000000000],XHL=3.721000000,%loadloss=1.340000000,%noloadloss=0.340000000
new transformer.1439523 Phases=3,Windings=2,Buses=[BMT159259633.1.2.3 BBT159075069.1.2.3.0],Conns=[delta wye],kvs=[13.8 0.22],kvas=[45.000000000 45.000000000],Taps=[1,1.000000000],XHL=3.636000000,%loadloss=1.522000000,%noloadloss=0.377777000
new transformer.1439524 Phases=3,Windings=2,Buses=[BMT159259636.1.2.3 BBT159075083.1.2.3.0],Conns=[delta wye],kvs=[13.8 0.22],kvas=[45.000000000 45.000000000],Taps=[1,1.000000000],XHL=3.636000000,%loadloss=1.522000000,%noloadloss=0.377777000
new transformer.1439525 Phases=3,Windings=2,Buses=[BMT159257872.1.2.3 BBT159075128.1.2.3.0],Conns=[delta wye],kvs=[13.8 0.22],kvas=[45.000000000 45.000000000],Taps=[1,1.000000000],XHL=3.636000000,%loadloss=1.522000000,%noloadloss=0.377777000
new transformer.1439526 Phases=3,Windings=2,Buses=[BMT159257869.1.2.3 BBT159075171.1.2.3.0],Conns=[delta wye],kvs=[13.8 0.22],kvas=[45.000000000 45.000000000],Taps=[1,1.000000000],XHL=3.636000000,%loadloss=1.522000000,%noloadloss=0.377777000
new transformer.1439527 Phases=3,Windings=2,Buses=[BMT159257870.1.2.3 BBT159075188.1.2.3.0],Conns=[delta wye],kvs=[13.8 0.22],kvas=[75.000000000 75.000000000],Taps=[1,1.000000000],XHL=3.721000000,%loadloss=1.340000000,%noloadloss=0.340000000
new transformer.1439528 Phases=3,Windings=2,Buses=[BMT159257873.1.2.3 BBT159075202.1.2.3.0],Conns=[delta wye],kvs=[13.8 0.22],kvas=[45.000000000 45.000000000],Taps=[1,1.000000000],XHL=3.636000000,%loadloss=1.522000000,%noloadloss=0.377777000
new transformer.1439577 Phases=3,Windings=2,Buses=[BMT159259635.1.2.3 BBT159087733.1.2.3.0],Conns=[delta wye],kvs=[13.8 0.22],kvas=[45.000000000 45.000000000],Taps=[1,1.000000000],XHL=3.636000000,%loadloss=1.522000000,%noloadloss=0.377777000
new transformer.1439605 Phases=3,Windings=2,Buses=[BMT159259632.1.2.3 BBT159094905.1.2.3.0],Conns=[delta wye],kvs=[13.8 0.22],kvas=[45.000000000 45.000000000],Taps=[1,1.000000000],XHL=3.636000000,%loadloss=1.522000000,%noloadloss=0.377777000
new transformer.39449 Phases=3,Windings=2,Buses=[BMT136607545.1.2.3 BBT238319.1.2.3.0],Conns=[delta wye],kvs=[13.8 0.22],kvas=[75.000000000 75.000000000],Taps=[1,1.000000000],XHL=3.721000000,%loadloss=1.340000000,%noloadloss=0.340000000
new transformer.39463 Phases=3,Windings=2,Buses=[BMT152548259.1.2.3 BBT238480.1.2.3.0],Conns=[delta wye],kvs=[13.8 0.22],kvas=[150.000000000 150.000000000],Taps=[1,1.000000000],XHL=3.805000000,%loadloss=1.127000000,%noloadloss=0.280000000
new transformer.39470 Phases=3,Windings=2,Buses=[BMT168067575.1.2.3 BBT238599.1.2.3.0],Conns=[delta wye],kvs=[13.8 0.22],kvas=[150.000000000 150.000000000],Taps=[1,1.000000000],XHL=3.805000000,%loadloss=1.127000000,%noloadloss=0.280000000
new transformer.39477 Phases=3,Windings=2,Buses=[BMT168067574.1.2.3 BBT238641.1.2.3.0],Conns=[delta wye],kvs=[13.8 0.22],kvas=[45.000000000 45.000000000],Taps=[1,1.000000000],XHL=3.636000000,%loadloss=1.522000000,%noloadloss=0.377777000
new transformer.39484 Phases=3,Windings=2,Buses=[BMT168067572.1.2.3 BBT238732.1.2.3.0],Conns=[delta wye],kvs=[13.8 0.22],kvas=[250.000000000 250.000000000],Taps=[1,1.000000000],XHL=4.881000000,%loadloss=0.990000000,%noloadloss=0.280000000
new transformer.40079 Phases=3,Windings=2,Buses=[BMT165433453.1.2.3 BBT246698.1.2.3.0],Conns=[delta wye],kvs=[13.8 0.22],kvas=[75.000000000 75.000000000],Taps=[1,1.000000000],XHL=3.721000000,%loadloss=1.340000000,%noloadloss=0.340000000
new transformer.40086 Phases=1,Windings=3,Buses=[BMT136695773.2 BBT246775.1.0 BBT246775.0.2],Conns=[wye wye wye],kvs=[7.967 0.12 0.12],kvas=[25.000000000 25.000000000 25.000000000],Taps=[1,1.000000000,1.000000000],XHL=2.344000000,XHT=2.344000000,XLT=1.563000000,%loadloss=1.420000000,%noloadloss=0.320000000
new transformer.40093 Phases=3,Windings=2,Buses=[BMT119965423.1.2.3 BBT246845.1.2.3.0],Conns=[delta wye],kvs=[13.8 0.22],kvas=[75.000000000 75.000000000],Taps=[1,1.000000000],XHL=3.721000000,%loadloss=1.340000000,%noloadloss=0.340000000
new transformer.40695 Phases=3,Windings=2,Buses=[BMT159310657.1.2.3 BBT255910.1.2.3.0],Conns=[delta wye],kvs=[13.8 0.22],kvas=[75.000000000 75.000000000],Taps=[1,1.000000000],XHL=3.721000000,%loadloss=1.340000000,%noloadloss=0.340000000
new transformer.40702 Phases=3,Windings=2,Buses=[BMT159312387.1.2.3 BBT255987.1.2.3.0],Conns=[delta wye],kvs=[13.8 0.22],kvas=[30.000000000 30.000000000],Taps=[1,1.000000000],XHL=3.564000000,%loadloss=1.667000000,%noloadloss=0.433333000
new transformer.41444 Phases=3,Windings=2,Buses=[BMT159322430.1.2.3 BBT267033.1.2.3.0],Conns=[delta wye],kvs=[13.8 0.22],kvas=[45.000000000 45.000000000],Taps=[1,1.000000000],XHL=3.636000000,%loadloss=1.522000000,%noloadloss=0.377777000
new transformer.41451 Phases=1,Windings=3,Buses=[BMT119972367.2 BBT267173.1.0 BBT267173.0.2],Conns=[wye wye wye],kvs=[7.967 0.12 0.12],kvas=[35.000000000 35.000000000 35.000000000],Taps=[1,1.000000000,1.000000000],XHL=2.475000000,XHT=2.475000000,XLT=1.650000000,%loadloss=1.293000000,%noloadloss=0.342857000
new transformer.41465 Phases=1,Windings=3,Buses=[BMT168026377.3 BBT267243.1.0 BBT267243.0.2],Conns=[wye wye wye],kvs=[7.967 0.12 0.12],kvas=[15.000000000 15.000000000 15.000000000],Taps=[1,1.000000000,1.000000000],XHL=2.123000000,XHT=2.123000000,XLT=1.415000000,%loadloss=1.600000000,%noloadloss=0.400000000
new transformer.41479 Phases=1,Windings=3,Buses=[BMT119972374.2 BBT267383.1.0 BBT267383.0.2],Conns=[wye wye wye],kvs=[7.967 0.12 0.12],kvas=[15.000000000 15.000000000 15.000000000],Taps=[1,1.000000000,1.000000000],XHL=2.123000000,XHT=2.123000000,XLT=1.415000000,%loadloss=1.600000000,%noloadloss=0.400000000
new transformer.44874 Phases=3,Windings=2,Buses=[BMT159398257.1.2.3 BBT326134.1.2.3.0],Conns=[delta wye],kvs=[13.8 0.22],kvas=[100.000000000 100.000000000],Taps=[1,1.000000000],XHL=3.771000000,%loadloss=1.218000000,%noloadloss=0.335000000
new transformer.50061 Phases=1,Windings=3,Buses=[BMT119973263.2 BBT345321.1.0 BBT345321.0.2],Conns=[wye wye wye],kvs=[7.967 0.12 0.12],kvas=[25.000000000 25.000000000 25.000000000],Taps=[1,1.000000000,1.000000000],XHL=2.344000000,XHT=2.344000000,XLT=1.563000000,%loadloss=1.420000000,%noloadloss=0.320000000
new transformer.606064 Phases=3,Windings=2,Buses=[BMT161935725.1.2.3 BBT3697222.1.2.3.0],Conns=[delta wye],kvs=[13.8 0.22],kvas=[45.000000000 45.000000000],Taps=[1,1.000000000],XHL=3.636000000,%loadloss=1.522000000,%noloadloss=0.377777000
new transformer.653188 Phases=1,Windings=3,Buses=[BMT119972787.3 BBT4063602.1.0 BBT4063602.0.2],Conns=[wye wye wye],kvs=[7.967 0.12 0.12],kvas=[5.000000000 5.000000000 5.000000000],Taps=[1,1.000000000,1.000000000],XHL=1.628000000,XHT=1.628000000,XLT=1.085000000,%loadloss=1.900000000,%noloadloss=0.600000000
new transformer.671724 Phases=3,Windings=2,Buses=[BMT161935728.1.2.3 BBT4840364.1.2.3.0],Conns=[delta wye],kvs=[13.8 0.22],kvas=[45.000000000 45.000000000],Taps=[1,1.000000000],XHL=3.636000000,%loadloss=1.522000000,%noloadloss=0.377777000
new transformer.1103822 Phases=3,Windings=2,Buses=[BMT161935718.1.2.3 BBT142600413.1.2.3.0],Conns=[delta wye],kvs=[13.8 0.22],kvas=[45.000000000 45.000000000],Taps=[1,1.000000000],XHL=3.636000000,%loadloss=1.522000000,%noloadloss=0.377777000
new transformer.1391974 Phases=3,Windings=2,Buses=[BMT159358772.1.2.3 BBT148521809.1.2.3.0],Conns=[delta wye],kvs=[13.8 0.22],kvas=[45.000000000 45.000000000],Taps=[1,1.000000000],XHL=3.636000000,%loadloss=1.522000000,%noloadloss=0.377777000
new transformer.1391975 Phases=3,Windings=2,Buses=[BMT159358769.1.2.3 BBT148521925.1.2.3.0],Conns=[delta wye],kvs=[13.8 0.22],kvas=[45.000000000 45.000000000],Taps=[1,1.000000000],XHL=3.636000000,%loadloss=1.522000000,%noloadloss=0.377777000
new transformer.1391979 Phases=3,Windings=2,Buses=[BMT159358767.1.2.3 BBT148522762.1.2.3.0],Conns=[delta wye],kvs=[13.8 0.22],kvas=[45.000000000 45.000000000],Taps=[1,1.000000000],XHL=3.636000000,%loadloss=1.522000000,%noloadloss=0.377777000
new transformer.1391980 Phases=3,Windings=2,Buses=[BMT159358768.1.2.3 BBT148522860.1.2.3.0],Conns=[delta wye],kvs=[13.8 0.22],kvas=[45.000000000 45.000000000],Taps=[1,1.000000000],XHL=3.636000000,%loadloss=1.522000000,%noloadloss=0.377777000
new transformer.1391983 Phases=3,Windings=2,Buses=[BMT159358771.1.2.3 BBT148523186.1.2.3.0],Conns=[delta wye],kvs=[13.8 0.22],kvas=[45.000000000 45.000000000],Taps=[1,1.000000000],XHL=3.636000000,%loadloss=1.522000000,%noloadloss=0.377777000
new transformer.1391986 Phases=3,Windings=2,Buses=[BMT159358770.1.2.3 BBT148523469.1.2.3.0],Conns=[delta wye],kvs=[13.8 0.22],kvas=[45.000000000 45.000000000],Taps=[1,1.000000000],XHL=3.636000000,%loadloss=1.522000000,%noloadloss=0.377777000
new transformer.1391998 Phases=3,Windings=2,Buses=[BMT159358759.1.2.3 BBT148524384.1.2.3.0],Conns=[delta wye],kvs=[13.8 0.22],kvas=[45.000000000 45.000000000],Taps=[1,1.000000000],XHL=3.636000000,%loadloss=1.522000000,%noloadloss=0.377777000
new transformer.1392000 Phases=3,Windings=2,Buses=[BMT159358757.1.2.3 BBT148524729.1.2.3.0],Conns=[delta wye],kvs=[13.8 0.22],kvas=[45.000000000 45.000000000],Taps=[1,1.000000000],XHL=3.636000000,%loadloss=1.522000000,%noloadloss=0.377777000
new transformer.1392004 Phases=3,Windings=2,Buses=[BMT159358763.1.2.3 BBT148525195.1.2.3.0],Conns=[delta wye],kvs=[13.8 0.22],kvas=[45.000000000 45.000000000],Taps=[1,1.000000000],XHL=3.636000000,%loadloss=1.522000000,%noloadloss=0.377777000
new transformer.1392005 Phases=3,Windings=2,Buses=[BMT159358765.1.2.3 BBT148525292.1.2.3.0],Conns=[delta wye],kvs=[13.8 0.22],kvas=[45.000000000 45.000000000],Taps=[1,1.000000000],XHL=3.636000000,%loadloss=1.522000000,%noloadloss=0.377777000
new transformer.1392011 Phases=3,Windings=2,Buses=[BMT159358762.1.2.3 BBT148526108.1.2.3.0],Conns=[delta wye],kvs=[13.8 0.22],kvas=[45.000000000 45.000000000],Taps=[1,1.000000000],XHL=3.636000000,%loadloss=1.522000000,%noloadloss=0.377777000
new transformer.1392012 Phases=3,Windings=2,Buses=[BMT159358766.1.2.3 BBT148526183.1.2.3.0],Conns=[delta wye],kvs=[13.8 0.22],kvas=[45.000000000 45.000000000],Taps=[1,1.000000000],XHL=3.636000000,%loadloss=1.522000000,%noloadloss=0.377777000
new transformer.1392014 Phases=3,Windings=2,Buses=[BMT161934404.1.2.3 BBT148526749.1.2.3.0],Conns=[delta wye],kvs=[13.8 0.22],kvas=[45.000000000 45.000000000],Taps=[1,1.000000000],XHL=3.636000000,%loadloss=1.522000000,%noloadloss=0.377777000
new transformer.1392016 Phases=3,Windings=2,Buses=[BMT161934406.1.2.3 BBT148526865.1.2.3.0],Conns=[delta wye],kvs=[13.8 0.22],kvas=[45.000000000 45.000000000],Taps=[1,1.000000000],XHL=3.636000000,%loadloss=1.522000000,%noloadloss=0.377777000
new transformer.39029 Phases=3,Windings=2,Buses=[BMT119970463.1.2.3 BBT232271.1.2.3.0],Conns=[delta wye],kvs=[13.8 0.22],kvas=[45.000000000 45.000000000],Taps=[1,1.000000000],XHL=3.636000000,%loadloss=1.522000000,%noloadloss=0.377777000
new transformer.39036 Phases=3,Windings=2,Buses=[BMT119970470.1.2.3 BBT232306.1.2.3.0],Conns=[delta wye],kvs=[13.8 0.22],kvas=[30.000000000 30.000000000],Taps=[1,1.000000000],XHL=3.564000000,%loadloss=1.667000000,%noloadloss=0.433333000
new transformer.39610 Phases=3,Windings=2,Buses=[BMT168067576.1.2.3 BBT240664.1.2.3.0],Conns=[delta wye],kvs=[13.8 0.22],kvas=[45.000000000 45.000000000],Taps=[1,1.000000000],XHL=3.636000000,%loadloss=1.522000000,%noloadloss=0.377777000
new transformer.39617 Phases=3,Windings=2,Buses=[BMT168840761.1.2.3 BBT240692.1.2.3.0],Conns=[delta wye],kvs=[13.8 0.22],kvas=[75.000000000 75.000000000],Taps=[1,1.000000000],XHL=3.721000000,%loadloss=1.340000000,%noloadloss=0.340000000
new transformer.40254 Phases=3,Windings=2,Buses=[BMT157267680.1.2.3 BBT249274.1.2.3.0],Conns=[delta wye],kvs=[13.8 0.22],kvas=[75.000000000 75.000000000],Taps=[1,1.000000000],XHL=3.721000000,%loadloss=1.340000000,%noloadloss=0.340000000
new transformer.40275 Phases=3,Windings=2,Buses=[BMT136674346.1.2.3 BBT249603.1.2.3.0],Conns=[delta wye],kvs=[13.8 0.22],kvas=[45.000000000 45.000000000],Taps=[1,1.000000000],XHL=3.636000000,%loadloss=1.522000000,%noloadloss=0.377777000
new transformer.40282 Phases=3,Windings=2,Buses=[BMT136674360.1.2.3 BBT249708.1.2.3.0],Conns=[delta wye],kvs=[13.8 0.22],kvas=[75.000000000 75.000000000],Taps=[1,1.000000000],XHL=3.721000000,%loadloss=1.340000000,%noloadloss=0.340000000
new transformer.40989 Phases=3,Windings=2,Buses=[BMT169412123.1.2.3 BBT260425.1.2.3.0],Conns=[delta wye],kvs=[13.8 0.22],kvas=[75.000000000 75.000000000],Taps=[1,1.000000000],XHL=3.721000000,%loadloss=1.340000000,%noloadloss=0.340000000
new transformer.41570 Phases=3,Windings=2,Buses=[BMT169706092.1.2.3 BBT268895.1.2.3.0],Conns=[delta wye],kvs=[13.8 0.22],kvas=[150.000000000 150.000000000],Taps=[1,1.000000000],XHL=3.805000000,%loadloss=1.127000000,%noloadloss=0.280000000
new transformer.41626 Phases=3,Windings=2,Buses=[BMT170220294.1.2.3 BBT269637.1.2.3.0],Conns=[delta wye],kvs=[13.8 0.22],kvas=[30.000000000 30.000000000],Taps=[1,1.000000000],XHL=3.564000000,%loadloss=1.667000000,%noloadloss=0.433333000
new transformer.49557 Phases=1,Windings=3,Buses=[BMT173228972.2 BBT344313.1.0 BBT344313.0.2],Conns=[wye wye wye],kvs=[7.967 0.12 0.12],kvas=[35.000000000 35.000000000 35.000000000],Taps=[1,1.000000000,1.000000000],XHL=2.475000000,XHT=2.475000000,XLT=1.650000000,%loadloss=1.293000000,%noloadloss=0.342857000
new transformer.585078 Phases=3,Windings=2,Buses=[BMT168067578.1.2.3 BBT3549382.1.2.3.0],Conns=[delta wye],kvs=[13.8 0.22],kvas=[30.000000000 30.000000000],Taps=[1,1.000000000],XHL=3.564000000,%loadloss=1.667000000,%noloadloss=0.433333000
new transformer.606071 Phases=3,Windings=2,Buses=[BMT161935724.1.2.3 BBT3697236.1.2.3.0],Conns=[delta wye],kvs=[13.8 0.22],kvas=[45.000000000 45.000000000],Taps=[1,1.000000000],XHL=3.636000000,%loadloss=1.522000000,%noloadloss=0.377777000
...