2024_89_CemigReconfigurationCases/1_AlimsCemig/AXAU10/AXAU10SegmentosBT.dss
new line.18698003 bus1=BBT265815.1.2.0,bus2=BBT148519309.1.2.0,Phases=2,Linecode=BT803_BT803_4_2_4,Length=0.029830000,Units=km
new line.18698084 bus1=BBT148521809.1.2.3.0,bus2=BBT148521810.1.2.3.0,Phases=3,Linecode=BT518_BT518_7_3_1,Length=0.000500000,Units=km
new line.18698085 bus1=BBT148521925.1.2.3.0,bus2=BBT148521927.1.2.3.0,Phases=3,Linecode=BT518_BT518_7_3_1,Length=0.000500000,Units=km
new line.18698089 bus1=BBT148521810.1.2.3.0,bus2=BBT148521977.1.2.3.0,Phases=3,Linecode=BT803_BT803_4_3_4,Length=0.023407000,Units=km
new line.18698094 bus1=BBT148521810.1.2.3.0,bus2=BBT148522013.1.2.3.0,Phases=3,Linecode=BT803_BT803_4_3_4,Length=0.023407000,Units=km
new line.18698095 bus1=BBT148522013.1.2.3.0,bus2=BBT148522022.1.2.3.0,Phases=3,Linecode=BT803_BT803_4_3_4,Length=0.026568000,Units=km
new line.18698098 bus1=BBT148522022.1.2.3.0,bus2=BBT148522036.1.2.3.0,Phases=3,Linecode=BT803_BT803_4_3_4,Length=0.025630000,Units=km
new line.18698103 bus1=BBT148522036.1.2.3.0,bus2=BBT148522107.1.2.3.0,Phases=3,Linecode=BT803_BT803_4_3_4,Length=0.036052000,Units=km
new line.18698107 bus1=BBT148522107.1.2.3.0,bus2=BBT148522155.1.2.3.0,Phases=3,Linecode=BT803_BT803_4_3_4,Length=0.036052000,Units=km
new line.18698108 bus1=BBT148522013.1.2.3.0,bus2=BBT148522163.1.2.3.0,Phases=3,Linecode=BT803_BT803_4_3_4,Length=0.035111000,Units=km
new line.18698109 bus1=BBT148522163.1.2.3.0,bus2=BBT148522207.1.2.3.0,Phases=3,Linecode=BT803_BT803_4_3_4,Length=0.036052000,Units=km
new line.18698111 bus1=BBT148521927.1.2.3.0,bus2=BBT148522241.1.2.3.0,Phases=3,Linecode=BT803_BT803_4_3_4,Length=0.025630000,Units=km
new line.18698112 bus1=BBT148522241.1.2.3.0,bus2=BBT148522275.1.2.3.0,Phases=3,Linecode=BT803_BT803_4_3_4,Length=0.009486000,Units=km
new line.18698113 bus1=BBT148522275.1.2.3.0,bus2=BBT148522317.1.2.3.0,Phases=3,Linecode=BT803_BT803_4_3_4,Length=0.032891000,Units=km
new line.18698114 bus1=BBT148522317.1.2.3.0,bus2=BBT148522386.1.2.3.0,Phases=3,Linecode=BT803_BT803_4_3_4,Length=0.036052000,Units=km
new line.18698115 bus1=BBT148522241.1.2.3.0,bus2=BBT148522392.1.2.3.0,Phases=3,Linecode=BT803_BT803_4_3_4,Length=0.022470000,Units=km
new line.18698116 bus1=BBT148522392.1.2.3.0,bus2=BBT148522460.1.2.3.0,Phases=3,Linecode=BT803_BT803_4_3_4,Length=0.022845000,Units=km
new line.18698117 bus1=BBT148522460.1.2.3.0,bus2=BBT148522468.1.2.3.0,Phases=3,Linecode=BT803_BT803_4_3_4,Length=0.036052000,Units=km
new line.18698118 bus1=BBT148522468.1.2.3.0,bus2=BBT148522495.1.2.3.0,Phases=3,Linecode=BT803_BT803_4_3_4,Length=0.036397000,Units=km
new line.18698120 bus1=BBT148521927.1.2.3.0,bus2=BBT148522521.1.2.3.0,Phases=3,Linecode=BT803_BT803_4_3_4,Length=0.026568000,Units=km
new line.18698121 bus1=BBT148522521.1.2.3.0,bus2=BBT148522523.1.2.3.0,Phases=3,Linecode=BT803_BT803_4_3_4,Length=0.009486000,Units=km
new line.18698122 bus1=BBT148522523.1.2.3.0,bus2=BBT148522533.1.2.3.0,Phases=3,Linecode=BT803_BT803_4_3_4,Length=0.014141000,Units=km
new line.18698123 bus1=BBT148522523.1.2.3.0,bus2=BBT148522536.1.2.3.0,Phases=3,Linecode=BT803_BT803_4_3_4,Length=0.013601000,Units=km
new line.18698124 bus1=BBT148522523.1.2.3.0,bus2=BBT148522537.1.2.3.0,Phases=3,Linecode=BT803_BT803_4_3_4,Length=0.030362000,Units=km
new line.18698125 bus1=BBT148522537.1.2.3.0,bus2=BBT148522557.1.2.3.0,Phases=3,Linecode=BT803_BT803_4_3_4,Length=0.036397000,Units=km
new line.18698126 bus1=BBT148521977.1.2.3.0,bus2=BBT148522563.1.2.3.0,Phases=3,Linecode=BT803_BT803_4_3_4,Length=0.006708000,Units=km
new line.18698127 bus1=BBT148522563.1.2.3.0,bus2=BBT148522564.1.2.3.0,Phases=3,Linecode=BT803_BT803_4_3_4,Length=0.042375000,Units=km
new line.18698128 bus1=BBT148522564.1.2.3.0,bus2=BBT148522581.1.2.3.0,Phases=3,Linecode=BT803_BT803_4_3_4,Length=0.036052000,Units=km
new line.18698129 bus1=BBT148522563.1.2.3.0,bus2=BBT148522591.1.2.3.0,Phases=3,Linecode=BT803_BT803_4_3_4,Length=0.036052000,Units=km
new line.18698132 bus1=BBT148522591.1.2.3.0,bus2=BBT148522602.1.2.3.0,Phases=3,Linecode=BT803_BT803_4_3_4,Length=0.036052000,Units=km
new line.18698135 bus1=BBT148522762.1.2.3.0,bus2=BBT148522763.1.2.3.0,Phases=3,Linecode=BT518_BT518_7_3_1,Length=0.000500000,Units=km
new line.18698138 bus1=BBT148522860.1.2.3.0,bus2=BBT148522861.1.2.3.0,Phases=3,Linecode=BT518_BT518_7_3_1,Length=0.000500000,Units=km
new line.18698144 bus1=BBT148522861.1.2.3.0,bus2=BBT148522921.1.2.3.0,Phases=3,Linecode=BT803_BT803_4_3_4,Length=0.018026000,Units=km
new line.18698145 bus1=BBT148522921.1.2.3.0,bus2=BBT148522932.1.2.3.0,Phases=3,Linecode=BT803_BT803_4_3_4,Length=0.007615000,Units=km
new line.18698146 bus1=BBT148522932.1.2.3.0,bus2=BBT148522961.1.2.3.0,Phases=3,Linecode=BT803_BT803_4_3_4,Length=0.032891000,Units=km
new line.18698147 bus1=BBT148522861.1.2.3.0,bus2=BBT148522971.1.2.3.0,Phases=3,Linecode=BT803_BT803_4_3_4,Length=0.026568000,Units=km
new line.18698149 bus1=BBT148522971.1.2.3.0,bus2=BBT148523035.1.2.3.0,Phases=3,Linecode=BT803_BT803_4_3_4,Length=0.007211000,Units=km
...